Program Version,EnergyPlus, Version 22.2.0-c249759bad, YMD=2023.09.01 19:52,
   ************* Beginning Zone Sizing Calculations
   ** Warning ** ProcessScheduleInput: Schedule:Constant="ALWAYS ON DISCRETE", Schedule Type Limits Name="ONOFF" not found -- will not be validated
   ** Warning ** Foundation:Kiva="KIVA FOUNDATION", no Interior Horizontal Insulation Material Name defined
   **   ~~~   ** Interior Horizontal Insulation Depth will not be used.
   ** Warning ** CheckUsedConstructions: There are 15 nominally unused constructions in input.
   **   ~~~   ** Each Unused construction is shown.
   ************* Construction=INTERIOR FLOOR
   ************* Construction=INTERIOR WINDOW
   ************* Construction=EXTERIOR DOOR
   ************* Construction=INTERIOR DOOR
   ************* Construction=GABLE CONSTRUCTION
   ************* Construction=CRAWL_FLOOR
   ************* Construction=INSULATED PIPE
   ************* Construction=PLAIN PIPE
   ************* Construction=TDD PIPE
   ************* Construction=TDD DOME
   ************* Construction=TDD DIFFUSER
   ************* Construction=CRAWL WALL
   ************* Construction=CEILING-FLOOR-LAYER
   ************* Construction=SLAB CONSTRUCTION W FULL R10 INSULATION
   ************* Construction=SLAB CONSTRUCTION W FULL R5 INSULATION
   ** Warning ** GetDXCoils: Coil:Heating:DX:SingleSpeed="DX_HEATING_COIL" curve values
   **   ~~~   ** ... Defrost Energy Input Ratio Function of Temperature Curve Name = DEFROSTEIR output is not equal to 1.0 (+ or - 10%) at rated conditions.
   **   ~~~   ** ... Curve output at rated conditions = 0.152
   ************* Beginning System Sizing Calculations
   ************* Beginning Plant Sizing Calculations
   ** Warning ** SizeDXCoil Coil:Cooling:DX:SingleSpeed DX_COOLING_COIL
   **   ~~~   ** ...Gross Rated Total Cooling Capacity [W] will be limited by the maximum rated volume flow per rated total capacity ratio.
   **   ~~~   ** ...DX coil volume flow rate ( m3/s ) = 0.415831
   **   ~~~   ** ...Requested capacity ( W ) = 6751.177
   **   ~~~   ** ...Requested flow/capacity ratio ( m3/s/W ) = 6.159E-005
   **   ~~~   ** ...Maximum flow/capacity ratio ( m3/s/W ) = 6.041E-005
   **   ~~~   ** ...Adjusted capacity ( W ) = 6883.486
   ** Warning ** Coil:WaterHeating:AirToWaterHeatPump:Wrapped "HEAT PUMP WATER HEATER EVAPORATOR": Rated air volume flow rate per watt of rated total water heating capacity is out of range
   **   ~~~   ** Min Rated Vol Flow Per Watt=[4.027E-005], Rated Vol Flow Per Watt=[1.510E-004], Max Rated Vol Flow Per Watt=[8.056E-005]. See Input-Output Reference Manual for valid range.
   ************* SizeFan: : Potential issue with equipment sizing for Fan:OnOff HEAT PUMP WATER HEATER FAN
   **   ~~~   ** User-Specified Maximum Flow Rate [m3/s] = 0.22653
   **   ~~~   ** differs from Design Size Maximum Flow Rate [m3/s] = 7.55250E-002
   **   ~~~   ** This may, or may not, indicate mismatched component sizes.
   **   ~~~   ** Verify that the value entered is intended and is consistent with other components.
   ** Warning ** Water heater = WATER HEATER TANK:  Recovery Efficiency and Energy Factor could not be calculated during the test for standard ratings
   **   ~~~   ** Setpoint was never recovered and/or heater never turned on
   ** Warning ** Check input. Pump nominal power or motor efficiency is set to 0, for pump=MAINS PRESSURE
   ** Warning ** Output:Meter: invalid Key Name="ELECTRIC_RANGE:INTERIOREQUIPMENT:ELECTRICITY" - not found.
   ** Warning ** Output:Meter: invalid Key Name="ELECTRIC_DRYER:INTERIOREQUIPMENT:ELECTRICITY" - not found.
   ** Warning ** Output:Meter: invalid Key Name="HEATRECOVERY:ELECTRICITY" - not found.
   ** Warning ** Output:Meter: invalid Key Name="HEATING:NATURALGAS" - not found.
   ** Warning ** Output:Meter: invalid Key Name="WATERSYSTEMS:NATURALGAS" - not found.
   ** Warning ** Output:Meter: invalid Key Name="PROPANE:FACILITY" - not found.
   ** Warning ** Output:Meter: invalid Key Name="HEATING:PROPANE" - not found.
   ************* Testing Individual Branch Integrity
   ************* All Branches passed integrity testing
   ************* Testing Individual Supply Air Path Integrity
   ************* All Supply Air Paths passed integrity testing
   ************* Testing Individual Return Air Path Integrity
   ************* All Return Air Paths passed integrity testing
   ************* No node connection errors were found.
   ************* Beginning Simulation
   ** Warning ** AirflowNetwork::Solver::validate_distribution: Heat pump water heater is simulated along with an AirflowNetwork but is not included in the AirflowNetwork.
   ** Warning ** CalcEquipmentFlowRates: "TOTAL HOT WATER LOAD" - Target water temperature is greater than the hot water temperature by (3.40 C)
   **   ~~~   **  Environment=EXTREME_WINTER, at Simulation time=01/06 06:00 - 06:15
   **   ~~~   ** ...target water temperature     = 53.33 C
   **   ~~~   ** ...hot water temperature        = 49.94 C
   **   ~~~   ** ...Target water temperature should be less than or equal to the hot water temperature. Verify temperature setpoints and schedules.
   ** Warning ** SimHVAC: Maximum iterations (20) exceeded for all HVAC loops, at EXTREME_WINTER, 01/10 23:00 - 23:15
   **   ~~~   ** The solution for one or more of the Air Loop HVAC systems did not appear to converge
   **   ~~~   ** Air System Named = CENTRAL SYSTEM did not converge for mass flow rate
   **   ~~~   ** Check values should be zero. Most Recent values listed first.
   **   ~~~   ** Demand-to-Supply interface mass flow rate check value iteration history trace: 7.194277E-002,7.194277E-002,7.194277E-002,7.194277E-002,7.194277E-002,7.194277E-002,7.194277E-002,7.194277E-002,7.194277E-002,7.194277E-002,
   **   ~~~   ** Supply-to-demand interface deck 1 mass flow rate check value iteration history trace: 7.194277E-002,7.194277E-002,7.194277E-002,7.194277E-002,7.194277E-002,7.194277E-002,7.194277E-002,7.194277E-002,7.194277E-002,7.194277E-002,
   **   ~~~   ** Air System Named = CENTRAL SYSTEM did not converge for energy
   **   ~~~   ** Check values should be zero. Most Recent values listed first.
   **   ~~~   ** Demand-to-Supply interface energy check value iteration history trace: 1344.184194,1344.184194,1344.184194,1344.184194,1344.184193,1344.184193,1344.184193,1344.184193,1344.184193,1344.184193,
   **   ~~~   ** Supply-to-demand interface deck 1 energy check value iteration history trace: 2128.540799,2128.540799,2128.540799,2128.540799,2128.540799,2128.540799,2128.540799,2128.540798,2128.540798,2128.540798,
   ** Warning ** SimHVAC: Maximum iterations (20) exceeded for all HVAC loops, at ANNUAL, 01/04 09:30 - 09:38
   **   ~~~   ** The solution for one or more of the Air Loop HVAC systems did not appear to converge
   **   ~~~   ** Air System Named = CENTRAL SYSTEM did not converge for mass flow rate
   **   ~~~   ** Check values should be zero. Most Recent values listed first.
   **   ~~~   ** Demand-to-Supply interface mass flow rate check value iteration history trace: 6.265870E-002,6.265870E-002,6.265870E-002,6.265870E-002,6.265870E-002,6.265870E-002,6.265870E-002,6.265870E-002,6.265870E-002,6.265870E-002,
   **   ~~~   ** Supply-to-demand interface deck 1 mass flow rate check value iteration history trace: 6.265870E-002,6.265870E-002,6.265870E-002,6.265870E-002,6.265870E-002,6.265870E-002,6.265870E-002,6.265870E-002,6.265870E-002,6.265870E-002,
   **   ~~~   ** Air System Named = CENTRAL SYSTEM did not converge for energy
   **   ~~~   ** Check values should be zero. Most Recent values listed first.
   **   ~~~   ** Demand-to-Supply interface energy check value iteration history trace: 1241.590318,1241.590317,1241.590317,1241.590317,1241.590317,1241.590317,1241.590317,1241.590317,1241.590317,1241.590317,
   **   ~~~   ** Supply-to-demand interface deck 1 energy check value iteration history trace: 2101.001735,2101.001735,2101.001735,2101.001735,2101.001735,2101.001734,2101.001734,2101.001734,2101.001734,2101.001734,
   ** Warning ** SimHVAC: Maximum iterations (20) exceeded for all HVAC loops, at ANNUAL, 01/18 08:15 - 08:20
   **   ~~~   ** The solution for one or more of the Air Loop HVAC systems did not appear to converge
   **   ~~~   ** Air System Named = CENTRAL SYSTEM did not converge for mass flow rate
   **   ~~~   ** Check values should be zero. Most Recent values listed first.
   **   ~~~   ** Demand-to-Supply interface mass flow rate check value iteration history trace: 7.451302E-002,7.451302E-002,7.451302E-002,7.451302E-002,7.451302E-002,7.451302E-002,7.451302E-002,7.451302E-002,7.451302E-002,7.451302E-002,
   **   ~~~   ** Supply-to-demand interface deck 1 mass flow rate check value iteration history trace: 7.451302E-002,7.451302E-002,7.451302E-002,7.451302E-002,7.451302E-002,7.451302E-002,7.451302E-002,7.451302E-002,7.451302E-002,7.451302E-002,
   **   ~~~   ** Air System Named = CENTRAL SYSTEM did not converge for energy
   **   ~~~   ** Check values should be zero. Most Recent values listed first.
   **   ~~~   ** Demand-to-Supply interface energy check value iteration history trace: 1476.400717,1476.400717,1476.400717,1476.400717,1476.400717,1476.400717,1476.400717,1476.400717,1476.400717,1476.400717,
   **   ~~~   ** Supply-to-demand interface deck 1 energy check value iteration history trace: 2507.657427,2507.657427,2507.657427,2507.657427,2507.657427,2507.657427,2507.657427,2507.657427,2507.657427,2507.657426,
   ** Warning ** SimHVAC: Maximum iterations (20) exceeded for all HVAC loops, at ANNUAL, 01/19 08:30 - 08:34
   **   ~~~   ** The solution for one or more of the Air Loop HVAC systems did not appear to converge
   **   ~~~   ** Air System Named = CENTRAL SYSTEM did not converge for mass flow rate
   **   ~~~   ** Check values should be zero. Most Recent values listed first.
   **   ~~~   ** Demand-to-Supply interface mass flow rate check value iteration history trace: 6.581149E-002,6.581149E-002,6.581149E-002,6.581149E-002,6.581149E-002,6.581149E-002,6.581149E-002,6.581149E-002,6.581149E-002,6.581149E-002,
   **   ~~~   ** Supply-to-demand interface deck 1 mass flow rate check value iteration history trace: 6.581149E-002,6.581149E-002,6.581149E-002,6.581149E-002,6.581149E-002,6.581149E-002,6.581149E-002,6.581149E-002,6.581149E-002,6.581149E-002,
   **   ~~~   ** Air System Named = CENTRAL SYSTEM did not converge for energy
   **   ~~~   ** Check values should be zero. Most Recent values listed first.
   **   ~~~   ** Demand-to-Supply interface energy check value iteration history trace: 1304.101901,1304.101900,1304.101900,1304.101900,1304.101900,1304.101900,1304.101900,1304.101900,1304.101900,1304.101900,
   **   ~~~   ** Supply-to-demand interface deck 1 energy check value iteration history trace: 2288.533038,2288.533038,2288.533038,2288.533038,2288.533037,2288.533037,2288.533037,2288.533037,2288.533037,2288.533037,
   ** Warning ** SimHVAC: Maximum iterations (20) exceeded for all HVAC loops, at ANNUAL, 01/21 08:32 - 08:35
   **   ~~~   ** The solution for one or more of the Air Loop HVAC systems did not appear to converge
   **   ~~~   ** Air System Named = CENTRAL SYSTEM did not converge for mass flow rate
   **   ~~~   ** Check values should be zero. Most Recent values listed first.
   **   ~~~   ** Demand-to-Supply interface mass flow rate check value iteration history trace: 8.003454E-002,8.003454E-002,8.003454E-002,8.003454E-002,8.003454E-002,8.003454E-002,8.003454E-002,8.003454E-002,8.003454E-002,8.003454E-002,
   **   ~~~   ** Supply-to-demand interface deck 1 mass flow rate check value iteration history trace: 8.003454E-002,8.003454E-002,8.003454E-002,8.003454E-002,8.003454E-002,8.003454E-002,8.003454E-002,8.003454E-002,8.003454E-002,8.003454E-002,
   **   ~~~   ** Air System Named = CENTRAL SYSTEM did not converge for energy
   **   ~~~   ** Check values should be zero. Most Recent values listed first.
   **   ~~~   ** Demand-to-Supply interface energy check value iteration history trace: 1586.109956,1586.109956,1586.109956,1586.109956,1586.109956,1586.109956,1586.109956,1586.109956,1586.109956,1586.109956,
   **   ~~~   ** Supply-to-demand interface deck 1 energy check value iteration history trace: 2661.231690,2661.231690,2661.231690,2661.231690,2661.231690,2661.231690,2661.231690,2661.231690,2661.231689,2661.231689,
   ** Warning ** SimHVAC: Maximum iterations (20) exceeded for all HVAC loops, at ANNUAL, 01/30 09:15 - 09:30
   **   ~~~   ** The solution for one or more of the Air Loop HVAC systems did not appear to converge
   **   ~~~   ** Air System Named = CENTRAL SYSTEM did not converge for mass flow rate
   **   ~~~   ** Check values should be zero. Most Recent values listed first.
   **   ~~~   ** Demand-to-Supply interface mass flow rate check value iteration history trace: 9.651658E-002,9.651658E-002,9.651658E-002,9.651658E-002,9.651658E-002,9.651658E-002,9.651658E-002,9.651658E-002,9.651658E-002,9.651658E-002,
   **   ~~~   ** Supply-to-demand interface deck 1 mass flow rate check value iteration history trace: 9.651658E-002,9.651658E-002,9.651658E-002,9.651658E-002,9.651658E-002,9.651658E-002,9.651658E-002,9.651658E-002,9.651658E-002,9.651658E-002,
   **   ~~~   ** Air System Named = CENTRAL SYSTEM did not converge for energy
   **   ~~~   ** Check values should be zero. Most Recent values listed first.
   **   ~~~   ** Demand-to-Supply interface energy check value iteration history trace: 1889.572526,1889.572525,1889.572525,1889.572525,1889.572525,1889.572525,1889.572525,1889.572525,1889.572525,1889.572524,
   **   ~~~   ** Supply-to-demand interface deck 1 energy check value iteration history trace: 2942.542128,2942.542127,2942.542127,2942.542127,2942.542127,2942.542127,2942.542126,2942.542126,2942.542126,2942.542126,
   ** Warning ** SimHVAC: Maximum iterations (20) exceeded for all HVAC loops, at ANNUAL, 02/03 14:30 - 14:45
   **   ~~~   ** The solution for one or more of the Air Loop HVAC systems did not appear to converge
   **   ~~~   ** Air System Named = CENTRAL SYSTEM did not converge for mass flow rate
   **   ~~~   ** Check values should be zero. Most Recent values listed first.
   **   ~~~   ** Demand-to-Supply interface mass flow rate check value iteration history trace: 4.348091E-002,4.348091E-002,4.348091E-002,4.348091E-002,4.348091E-002,4.348091E-002,4.348091E-002,4.348091E-002,4.348091E-002,4.348091E-002,
   **   ~~~   ** Supply-to-demand interface deck 1 mass flow rate check value iteration history trace: 4.348091E-002,4.348091E-002,4.348091E-002,4.348091E-002,4.348091E-002,4.348091E-002,4.348091E-002,4.348091E-002,4.348091E-002,4.348091E-002,
   **   ~~~   ** Air System Named = CENTRAL SYSTEM did not converge for energy
   **   ~~~   ** Check values should be zero. Most Recent values listed first.
   **   ~~~   ** Demand-to-Supply interface energy check value iteration history trace: 857.422036,857.422036,857.422036,857.422036,857.422036,857.422036,857.422036,857.422036,857.422036,857.422036,
   **   ~~~   ** Supply-to-demand interface deck 1 energy check value iteration history trace: 1570.457884,1570.457884,1570.457884,1570.457883,1570.457883,1570.457883,1570.457883,1570.457883,1570.457883,1570.457883,
   ** Warning ** SimHVAC: Maximum iterations (20) exceeded for all HVAC loops, at ANNUAL, 02/09 08:15 - 08:30
   **   ~~~   ** The solution for one or more of the Air Loop HVAC systems did not appear to converge
   **   ~~~   ** Air System Named = CENTRAL SYSTEM did not converge for mass flow rate
   **   ~~~   ** Check values should be zero. Most Recent values listed first.
   **   ~~~   ** Demand-to-Supply interface mass flow rate check value iteration history trace: 7.047123E-002,7.047123E-002,7.047123E-002,7.047123E-002,7.047123E-002,7.047123E-002,7.047123E-002,7.047123E-002,7.047123E-002,7.047123E-002,
   **   ~~~   ** Supply-to-demand interface deck 1 mass flow rate check value iteration history trace: 7.047123E-002,7.047123E-002,7.047123E-002,7.047123E-002,7.047123E-002,7.047123E-002,7.047123E-002,7.047123E-002,7.047123E-002,7.047123E-002,
   **   ~~~   ** Air System Named = CENTRAL SYSTEM did not converge for energy
   **   ~~~   ** Check values should be zero. Most Recent values listed first.
   **   ~~~   ** Demand-to-Supply interface energy check value iteration history trace: 1393.124744,1393.124744,1393.124743,1393.124743,1393.124743,1393.124743,1393.124743,1393.124743,1393.124743,1393.124743,
   **   ~~~   ** Supply-to-demand interface deck 1 energy check value iteration history trace: 2368.249371,2368.249371,2368.249371,2368.249371,2368.249371,2368.249370,2368.249370,2368.249370,2368.249370,2368.249370,
   ** Warning ** SimHVAC: Maximum iterations (20) exceeded for all HVAC loops, at ANNUAL, 02/15 08:45 - 09:00
   **   ~~~   ** The solution for one or more of the Air Loop HVAC systems did not appear to converge
   **   ~~~   ** Air System Named = CENTRAL SYSTEM did not converge for mass flow rate
   **   ~~~   ** Check values should be zero. Most Recent values listed first.
   **   ~~~   ** Demand-to-Supply interface mass flow rate check value iteration history trace: 6.169569E-002,6.169569E-002,6.169569E-002,6.169569E-002,6.169569E-002,6.169569E-002,6.169569E-002,6.169569E-002,6.169569E-002,6.169569E-002,
   **   ~~~   ** Supply-to-demand interface deck 1 mass flow rate check value iteration history trace: 6.169569E-002,6.169569E-002,6.169569E-002,6.169569E-002,6.169569E-002,6.169569E-002,6.169569E-002,6.169569E-002,6.169569E-002,6.169569E-002,
   **   ~~~   ** Air System Named = CENTRAL SYSTEM did not converge for energy
   **   ~~~   ** Check values should be zero. Most Recent values listed first.
   **   ~~~   ** Demand-to-Supply interface energy check value iteration history trace: 1222.586369,1222.586369,1222.586369,1222.586369,1222.586369,1222.586369,1222.586369,1222.586369,1222.586369,1222.586369,
   **   ~~~   ** Supply-to-demand interface deck 1 energy check value iteration history trace: 2176.332928,2176.332928,2176.332928,2176.332928,2176.332928,2176.332928,2176.332928,2176.332928,2176.332928,2176.332928,
   ** Warning ** SimHVAC: Maximum iterations (20) exceeded for all HVAC loops, at ANNUAL, 03/10 10:09 - 10:12
   **   ~~~   ** The solution for one or more of the Air Loop HVAC systems did not appear to converge
   **   ~~~   ** Air System Named = CENTRAL SYSTEM did not converge for mass flow rate
   **   ~~~   ** Check values should be zero. Most Recent values listed first.
   **   ~~~   ** Demand-to-Supply interface mass flow rate check value iteration history trace: 6.567716E-002,6.567716E-002,6.567716E-002,6.567716E-002,6.567716E-002,6.567716E-002,6.567716E-002,6.567716E-002,6.567716E-002,6.567716E-002,
   **   ~~~   ** Supply-to-demand interface deck 1 mass flow rate check value iteration history trace: 6.567716E-002,6.567716E-002,6.567716E-002,6.567716E-002,6.567716E-002,6.567716E-002,6.567716E-002,6.567716E-002,6.567716E-002,6.567716E-002,
   **   ~~~   ** Air System Named = CENTRAL SYSTEM did not converge for energy
   **   ~~~   ** Check values should be zero. Most Recent values listed first.
   **   ~~~   ** Demand-to-Supply interface energy check value iteration history trace: 1296.015541,1296.015541,1296.015541,1296.015541,1296.015541,1296.015541,1296.015541,1296.015541,1296.015541,1296.015541,
   **   ~~~   ** Supply-to-demand interface deck 1 energy check value iteration history trace: 2203.410556,2203.410556,2203.410556,2203.410555,2203.410555,2203.410555,2203.410555,2203.410555,2203.410555,2203.410555,
   ** Warning ** SimHVAC: Maximum iterations (20) exceeded for all HVAC loops, at ANNUAL, 03/20 14:45 - 15:00
   **   ~~~   ** The solution for one or more of the Air Loop HVAC systems did not appear to converge
   **   ~~~   ** Air System Named = CENTRAL SYSTEM did not converge for mass flow rate
   **   ~~~   ** Check values should be zero. Most Recent values listed first.
   **   ~~~   ** Demand-to-Supply interface mass flow rate check value iteration history trace: 5.581845E-002,5.581845E-002,5.581845E-002,5.581845E-002,5.581845E-002,5.581845E-002,5.581845E-002,5.581845E-002,5.581845E-002,5.581845E-002,
   **   ~~~   ** Supply-to-demand interface deck 1 mass flow rate check value iteration history trace: 5.581845E-002,5.581845E-002,5.581845E-002,5.581845E-002,5.581845E-002,5.581845E-002,5.581845E-002,5.581845E-002,5.581845E-002,5.581845E-002,
   **   ~~~   ** Air System Named = CENTRAL SYSTEM did not converge for energy
   **   ~~~   ** Check values should be zero. Most Recent values listed first.
   **   ~~~   ** Demand-to-Supply interface energy check value iteration history trace: 1105.047692,1105.047691,1105.047691,1105.047691,1105.047691,1105.047691,1105.047690,1105.047690,1105.047690,1105.047690,
   **   ~~~   ** Supply-to-demand interface deck 1 energy check value iteration history trace: 1903.728053,1903.728053,1903.728052,1903.728052,1903.728052,1903.728051,1903.728051,1903.728050,1903.728050,1903.728050,
   **   ~~~   ** Node named ZONE INLET NODE shows oscillating temperatures across iterations with a repeated value of 33.941305
   **   ~~~   ** Node named ZONE INLET NODE temperature [C] iteration history trace (most recent first): 33.941305,33.941305,33.941305,33.941304,33.941304,33.941304,33.941304,33.941304,33.941303,33.941303,
   ** Warning ** SimHVAC: Maximum iterations (20) exceeded for all HVAC loops, at ANNUAL, 03/20 17:23 - 17:30
   **   ~~~   ** The solution for one or more of the Air Loop HVAC systems did not appear to converge
   **   ~~~   ** Air System Named = CENTRAL SYSTEM did not converge for mass flow rate
   **   ~~~   ** Check values should be zero. Most Recent values listed first.
   **   ~~~   ** Demand-to-Supply interface mass flow rate check value iteration history trace: 7.186994E-002,7.186994E-002,7.186994E-002,7.186994E-002,7.186994E-002,7.186994E-002,7.186994E-002,7.186994E-002,7.186994E-002,7.186994E-002,
   **   ~~~   ** Supply-to-demand interface deck 1 mass flow rate check value iteration history trace: 7.186994E-002,7.186994E-002,7.186994E-002,7.186994E-002,7.186994E-002,7.186994E-002,7.186994E-002,7.186994E-002,7.186994E-002,7.186994E-002,
   **   ~~~   ** Air System Named = CENTRAL SYSTEM did not converge for energy
   **   ~~~   ** Check values should be zero. Most Recent values listed first.
   **   ~~~   ** Demand-to-Supply interface energy check value iteration history trace: 1417.602371,1417.602371,1417.602371,1417.602371,1417.602371,1417.602371,1417.602371,1417.602371,1417.602370,1417.602370,
   **   ~~~   ** Supply-to-demand interface deck 1 energy check value iteration history trace: 2423.550691,2423.550691,2423.550691,2423.550691,2423.550691,2423.550691,2423.550691,2423.550691,2423.550690,2423.550690,
   ** Warning ** SimHVAC: Maximum iterations (20) exceeded for all HVAC loops, at ANNUAL, 03/30 01:45 - 01:52
   **   ~~~   ** The solution for one or more of the Air Loop HVAC systems did not appear to converge
   **   ~~~   ** Air System Named = CENTRAL SYSTEM did not converge for mass flow rate
   **   ~~~   ** Check values should be zero. Most Recent values listed first.
   **   ~~~   ** Demand-to-Supply interface mass flow rate check value iteration history trace: 5.546225E-002,5.546225E-002,5.546225E-002,5.546225E-002,5.546225E-002,5.546225E-002,5.546225E-002,5.546225E-002,5.546225E-002,5.546225E-002,
   **   ~~~   ** Supply-to-demand interface deck 1 mass flow rate check value iteration history trace: 5.546225E-002,5.546225E-002,5.546225E-002,5.546225E-002,5.546225E-002,5.546225E-002,5.546225E-002,5.546225E-002,5.546225E-002,5.546225E-002,
   **   ~~~   ** Air System Named = CENTRAL SYSTEM did not converge for energy
   **   ~~~   ** Check values should be zero. Most Recent values listed first.
   **   ~~~   ** Demand-to-Supply interface energy check value iteration history trace: 1055.249458,1055.249457,1055.249457,1055.249457,1055.249457,1055.249457,1055.249457,1055.249457,1055.249457,1055.249457,
   **   ~~~   ** Supply-to-demand interface deck 1 energy check value iteration history trace: 1851.125495,1851.125495,1851.125495,1851.125495,1851.125495,1851.125495,1851.125495,1851.125495,1851.125495,1851.125495,
   ** Warning ** SimHVAC: Maximum iterations (20) exceeded for all HVAC loops, at ANNUAL, 04/01 09:56 - 10:00
   **   ~~~   ** The solution for one or more of the Air Loop HVAC systems did not appear to converge
   **   ~~~   ** Air System Named = CENTRAL SYSTEM did not converge for mass flow rate
   **   ~~~   ** Check values should be zero. Most Recent values listed first.
   **   ~~~   ** Demand-to-Supply interface mass flow rate check value iteration history trace: 5.752849E-002,5.752849E-002,5.752849E-002,5.752849E-002,5.752849E-002,5.752849E-002,5.752849E-002,5.752849E-002,5.752849E-002,5.752849E-002,
   **   ~~~   ** Supply-to-demand interface deck 1 mass flow rate check value iteration history trace: 5.752849E-002,5.752849E-002,5.752849E-002,5.752849E-002,5.752849E-002,5.752849E-002,5.752849E-002,5.752849E-002,5.752849E-002,5.752849E-002,
   **   ~~~   ** Air System Named = CENTRAL SYSTEM did not converge for energy
   **   ~~~   ** Check values should be zero. Most Recent values listed first.
   **   ~~~   ** Demand-to-Supply interface energy check value iteration history trace: 1131.377580,1131.377580,1131.377580,1131.377580,1131.377580,1131.377580,1131.377580,1131.377580,1131.377580,1131.377580,
   **   ~~~   ** Supply-to-demand interface deck 1 energy check value iteration history trace: 1985.625103,1985.625102,1985.625102,1985.625102,1985.625102,1985.625102,1985.625102,1985.625102,1985.625102,1985.625102,
   ************* Simulation Error Summary *************
   ** Warning ** The following Report Variables were requested but not generated -- check.rdd file
   **   ~~~   ** Either the IDF did not contain these elements, the variable name is misspelled,
   **   ~~~   ** or the requested variable is an advanced output which requires Output : Diagnostics, DisplayAdvancedReportVariables;
   ************* Key=*, VarName=BASEBOARD TOTAL HEATING ENERGY, Frequency=
   ************* Key=*, VarName=WATER HEATER NATURALGAS ENERGY, Frequency=
   ************* Key=*, VarName=COOLING COIL TOTAL HEATING ENERGY, Frequency=
   ************* There are 34 unused schedules in input.
   ************* There are 388 unused week schedules in input.
   ************* There are 396 unused day schedules in input.
   ************* Use Output:Diagnostics,DisplayUnusedSchedules; to see them.
   *************
   ************* ===== Recurring Error Summary =====
   ************* The following recurring error messages occurred.
   *************
   *************  ** Warning ** "TOTAL HOT WATER LOAD" - Target water temperature should be less than or equal to the hot water temperature error continues...
   *************  **   ~~~   **   This error occurred 130485 total times;
   *************  **   ~~~   **   during Warmup 0 times;
   *************  **   ~~~   **   during Sizing 0 times.
   *************  **   ~~~   **   Max=11.864027  Min=2.711372E-003
   *************
   *************  ** Warning ** SimHVAC: Exceeding Maximum iterations for all HVAC loops, during ANNUAL continues
   *************  **   ~~~   **   This error occurred 12 total times;
   *************  **   ~~~   **   during Warmup 0 times;
   *************  **   ~~~   **   during Sizing 0 times.
   *************
   *************
   ************* ===== Final Error Summary =====
   ************* The following error categories occurred.  Consider correcting or noting.
   ************* Nominally Unused Constructions
   ************* ..The nominally unused constructions warning is provided to alert you to potential conditions that can cause
   ************* ..extra time during simulation. Each construction is calculated by the algorithm indicated in the HeatBalanceAlgorithm
   ************* ..object. You may remove the constructions indicated (when you use the DisplayExtraWarnings option).
   *************
   ************* EnergyPlus Warmup Error Summary. During Warmup: 1 Warning; 0 Severe Errors.
   ************* EnergyPlus Sizing Error Summary. During Sizing: 4 Warning; 0 Severe Errors.
   ************* EnergyPlus Completed Successfully-- 130529 Warning; 0 Severe Errors; Elapsed Time=00hr 01min 34.54sec
