Program Version,EnergyPlus, Version 22.2.0-c249759bad, YMD=2023.09.01 19:52,
   ************* Beginning Zone Sizing Calculations
   ** Warning ** ProcessScheduleInput: Schedule:Constant="ALWAYS ON DISCRETE", Schedule Type Limits Name="ONOFF" not found -- will not be validated
   ** Warning ** Foundation:Kiva="KIVA FOUNDATION", no Interior Horizontal Insulation Material Name defined
   **   ~~~   ** Interior Horizontal Insulation Depth will not be used.
   ** Warning ** CheckUsedConstructions: There are 15 nominally unused constructions in input.
   **   ~~~   ** Each Unused construction is shown.
   ************* Construction=INTERIOR FLOOR
   ************* Construction=INTERIOR WINDOW
   ************* Construction=EXTERIOR DOOR
   ************* Construction=INTERIOR DOOR
   ************* Construction=GABLE CONSTRUCTION
   ************* Construction=CRAWL_FLOOR
   ************* Construction=INSULATED PIPE
   ************* Construction=PLAIN PIPE
   ************* Construction=TDD PIPE
   ************* Construction=TDD DOME
   ************* Construction=TDD DIFFUSER
   ************* Construction=CRAWL WALL
   ************* Construction=CEILING-FLOOR-LAYER
   ************* Construction=SLAB CONSTRUCTION W FULL R10 INSULATION
   ************* Construction=SLAB CONSTRUCTION W FULL R5 INSULATION
   ** Warning ** GetDXCoils: Coil:Heating:DX:SingleSpeed="DX_HEATING_COIL" curve values
   **   ~~~   ** ... Defrost Energy Input Ratio Function of Temperature Curve Name = DEFROSTEIR output is not equal to 1.0 (+ or - 10%) at rated conditions.
   **   ~~~   ** ... Curve output at rated conditions = 0.152
   ************* Beginning System Sizing Calculations
   ************* Beginning Plant Sizing Calculations
   ** Warning ** Coil:WaterHeating:AirToWaterHeatPump:Wrapped "HEAT PUMP WATER HEATER EVAPORATOR": Rated air volume flow rate per watt of rated total water heating capacity is out of range
   **   ~~~   ** Min Rated Vol Flow Per Watt=[4.027E-005], Rated Vol Flow Per Watt=[1.510E-004], Max Rated Vol Flow Per Watt=[8.056E-005]. See Input-Output Reference Manual for valid range.
   ************* SizeFan: : Potential issue with equipment sizing for Fan:OnOff HEAT PUMP WATER HEATER FAN
   **   ~~~   ** User-Specified Maximum Flow Rate [m3/s] = 0.22653
   **   ~~~   ** differs from Design Size Maximum Flow Rate [m3/s] = 7.55250E-002
   **   ~~~   ** This may, or may not, indicate mismatched component sizes.
   **   ~~~   ** Verify that the value entered is intended and is consistent with other components.
   ** Warning ** Water heater = WATER HEATER TANK:  Recovery Efficiency and Energy Factor could not be calculated during the test for standard ratings
   **   ~~~   ** Setpoint was never recovered and/or heater never turned on
   ** Warning ** Check input. Pump nominal power or motor efficiency is set to 0, for pump=MAINS PRESSURE
   ** Warning ** Output:Meter: invalid Key Name="ELECTRIC_RANGE:INTERIOREQUIPMENT:ELECTRICITY" - not found.
   ** Warning ** Output:Meter: invalid Key Name="ELECTRIC_DRYER:INTERIOREQUIPMENT:ELECTRICITY" - not found.
   ** Warning ** Output:Meter: invalid Key Name="HEATRECOVERY:ELECTRICITY" - not found.
   ** Warning ** Output:Meter: invalid Key Name="HEATING:NATURALGAS" - not found.
   ** Warning ** Output:Meter: invalid Key Name="WATERSYSTEMS:NATURALGAS" - not found.
   ** Warning ** Output:Meter: invalid Key Name="PROPANE:FACILITY" - not found.
   ** Warning ** Output:Meter: invalid Key Name="HEATING:PROPANE" - not found.
   ************* Testing Individual Branch Integrity
   ************* All Branches passed integrity testing
   ************* Testing Individual Supply Air Path Integrity
   ************* All Supply Air Paths passed integrity testing
   ************* Testing Individual Return Air Path Integrity
   ************* All Return Air Paths passed integrity testing
   ************* No node connection errors were found.
   ************* Beginning Simulation
   ** Warning ** AirflowNetwork::Solver::validate_distribution: Heat pump water heater is simulated along with an AirflowNetwork but is not included in the AirflowNetwork.
   ** Warning ** CalcEquipmentFlowRates: "TOTAL HOT WATER LOAD" - Target water temperature is greater than the hot water temperature by (5.66 C)
   **   ~~~   **  Environment=EXTREME_WINTER, at Simulation time=01/20 06:00 - 06:15
   **   ~~~   ** ...target water temperature     = 53.33 C
   **   ~~~   ** ...hot water temperature        = 47.67 C
   **   ~~~   ** ...Target water temperature should be less than or equal to the hot water temperature. Verify temperature setpoints and schedules.
   ** Warning ** SimHVAC: Maximum iterations (20) exceeded for all HVAC loops, at EXTREME_WINTER, 01/25 09:30 - 09:45
   **   ~~~   ** The solution for one or more of the Air Loop HVAC systems did not appear to converge
   **   ~~~   ** Air System Named = CENTRAL SYSTEM did not converge for mass flow rate
   **   ~~~   ** Check values should be zero. Most Recent values listed first.
   **   ~~~   ** Demand-to-Supply interface mass flow rate check value iteration history trace: 9.756860E-002,9.756860E-002,9.756860E-002,9.756860E-002,9.756860E-002,9.756860E-002,9.756860E-002,9.756860E-002,9.756860E-002,9.756860E-002,
   **   ~~~   ** Supply-to-demand interface deck 1 mass flow rate check value iteration history trace: 9.756860E-002,9.756860E-002,9.756860E-002,9.756860E-002,9.756860E-002,9.756860E-002,9.756860E-002,9.756860E-002,9.756860E-002,9.756860E-002,
   **   ~~~   ** Air System Named = CENTRAL SYSTEM did not converge for energy
   **   ~~~   ** Check values should be zero. Most Recent values listed first.
   **   ~~~   ** Demand-to-Supply interface energy check value iteration history trace: 1933.450568,1933.450568,1933.450568,1933.450567,1933.450567,1933.450567,1933.450567,1933.450567,1933.450567,1933.450567,
   **   ~~~   ** Supply-to-demand interface deck 1 energy check value iteration history trace: 3004.986417,3004.986417,3004.986417,3004.986416,3004.986416,3004.986416,3004.986416,3004.986416,3004.986416,3004.986415,
   ** Warning ** SimHVAC: Maximum iterations (20) exceeded for all HVAC loops, at EXTREME_SUMMER, 06/26 05:08 - 05:15
   **   ~~~   ** The solution for one or more of the Air Loop HVAC systems did not appear to converge
   **   ~~~   ** Air System Named = CENTRAL SYSTEM did not converge for mass flow rate
   **   ~~~   ** Check values should be zero. Most Recent values listed first.
   **   ~~~   ** Demand-to-Supply interface mass flow rate check value iteration history trace: 0.457078,0.457078,0.457078,0.457078,0.457078,0.457078,0.457078,0.457078,0.457078,0.457078,
   **   ~~~   ** Supply-to-demand interface deck 1 mass flow rate check value iteration history trace: 0.457078,0.457078,0.457078,0.457078,0.457078,0.457078,0.457078,0.457078,0.457078,0.457078,
   **   ~~~   ** Air System Named = CENTRAL SYSTEM did not converge for energy
   **   ~~~   ** Check values should be zero. Most Recent values listed first.
   **   ~~~   ** Demand-to-Supply interface energy check value iteration history trace: 11369.311269,11369.311273,11369.311278,11369.311283,11369.311288,11369.311293,11369.311298,11369.311303,11369.311308,11369.311312,
   **   ~~~   ** Supply-to-demand interface deck 1 energy check value iteration history trace: 6322.511944,6322.511946,6322.511949,6322.511952,6322.511954,6322.511957,6322.511960,6322.511963,6322.511965,6322.511968,
   ** Warning ** SimHVAC: Maximum iterations (20) exceeded for all HVAC loops, at ANNUAL, 01/02 08:45 - 09:00
   **   ~~~   ** The solution for one or more of the Air Loop HVAC systems did not appear to converge
   **   ~~~   ** Air System Named = CENTRAL SYSTEM did not converge for mass flow rate
   **   ~~~   ** Check values should be zero. Most Recent values listed first.
   **   ~~~   ** Demand-to-Supply interface mass flow rate check value iteration history trace: 6.922518E-002,6.922518E-002,6.922518E-002,6.922518E-002,6.922518E-002,6.922518E-002,6.922518E-002,6.922518E-002,6.922518E-002,6.922518E-002,
   **   ~~~   ** Supply-to-demand interface deck 1 mass flow rate check value iteration history trace: 6.922518E-002,6.922518E-002,6.922518E-002,6.922518E-002,6.922518E-002,6.922518E-002,6.922518E-002,6.922518E-002,6.922518E-002,6.922518E-002,
   **   ~~~   ** Air System Named = CENTRAL SYSTEM did not converge for energy
   **   ~~~   ** Check values should be zero. Most Recent values listed first.
   **   ~~~   ** Demand-to-Supply interface energy check value iteration history trace: 1356.247087,1356.247087,1356.247087,1356.247086,1356.247086,1356.247086,1356.247086,1356.247086,1356.247086,1356.247086,
   **   ~~~   ** Supply-to-demand interface deck 1 energy check value iteration history trace: 2329.808522,2329.808522,2329.808522,2329.808522,2329.808522,2329.808522,2329.808522,2329.808522,2329.808521,2329.808521,
   ** Warning ** SimHVAC: Maximum iterations (20) exceeded for all HVAC loops, at ANNUAL, 01/07 10:45 - 11:00
   **   ~~~   ** The solution for one or more of the Air Loop HVAC systems did not appear to converge
   **   ~~~   ** Air System Named = CENTRAL SYSTEM did not converge for mass flow rate
   **   ~~~   ** Check values should be zero. Most Recent values listed first.
   **   ~~~   ** Demand-to-Supply interface mass flow rate check value iteration history trace: 6.223440E-002,6.223440E-002,6.223440E-002,6.223440E-002,6.223440E-002,6.223440E-002,6.223440E-002,6.223440E-002,6.223440E-002,6.223440E-002,
   **   ~~~   ** Supply-to-demand interface deck 1 mass flow rate check value iteration history trace: 6.223440E-002,6.223440E-002,6.223440E-002,6.223440E-002,6.223440E-002,6.223440E-002,6.223440E-002,6.223440E-002,6.223440E-002,6.223440E-002,
   **   ~~~   ** Air System Named = CENTRAL SYSTEM did not converge for energy
   **   ~~~   ** Check values should be zero. Most Recent values listed first.
   **   ~~~   ** Demand-to-Supply interface energy check value iteration history trace: 1233.249622,1233.249622,1233.249622,1233.249622,1233.249622,1233.249621,1233.249621,1233.249621,1233.249621,1233.249621,
   **   ~~~   ** Supply-to-demand interface deck 1 energy check value iteration history trace: 2132.098842,2132.098842,2132.098842,2132.098842,2132.098842,2132.098842,2132.098842,2132.098841,2132.098841,2132.098841,
   ** Warning ** SimHVAC: Maximum iterations (20) exceeded for all HVAC loops, at ANNUAL, 01/10 06:00 - 06:08
   **   ~~~   ** The solution for one or more of the Air Loop HVAC systems did not appear to converge
   **   ~~~   ** Air System Named = CENTRAL SYSTEM did not converge for mass flow rate
   **   ~~~   ** Check values should be zero. Most Recent values listed first.
   **   ~~~   ** Demand-to-Supply interface mass flow rate check value iteration history trace: 4.370822E-002,4.370822E-002,4.370822E-002,4.370822E-002,4.370822E-002,4.370822E-002,4.370822E-002,4.370822E-002,4.370822E-002,4.370822E-002,
   **   ~~~   ** Supply-to-demand interface deck 1 mass flow rate check value iteration history trace: 4.370822E-002,4.370822E-002,4.370822E-002,4.370822E-002,4.370822E-002,4.370822E-002,4.370822E-002,4.370822E-002,4.370822E-002,4.370822E-002,
   **   ~~~   ** Air System Named = CENTRAL SYSTEM did not converge for energy
   **   ~~~   ** Check values should be zero. Most Recent values listed first.
   **   ~~~   ** Demand-to-Supply interface energy check value iteration history trace: 866.357057,866.357057,866.357057,866.357057,866.357057,866.357057,866.357057,866.357057,866.357057,866.357057,
   **   ~~~   ** Supply-to-demand interface deck 1 energy check value iteration history trace: 1594.716094,1594.716094,1594.716094,1594.716094,1594.716094,1594.716094,1594.716094,1594.716094,1594.716094,1594.716094,
   ** Warning ** SimHVAC: Maximum iterations (20) exceeded for all HVAC loops, at ANNUAL, 01/10 07:45 - 08:00
   **   ~~~   ** The solution for one or more of the Air Loop HVAC systems did not appear to converge
   **   ~~~   ** Air System Named = CENTRAL SYSTEM did not converge for mass flow rate
   **   ~~~   ** Check values should be zero. Most Recent values listed first.
   **   ~~~   ** Demand-to-Supply interface mass flow rate check value iteration history trace: 4.854214E-002,4.854214E-002,4.854214E-002,4.854214E-002,4.854214E-002,4.854214E-002,4.854214E-002,4.854214E-002,4.854214E-002,4.854214E-002,
   **   ~~~   ** Supply-to-demand interface deck 1 mass flow rate check value iteration history trace: 4.854214E-002,4.854214E-002,4.854214E-002,4.854214E-002,4.854214E-002,4.854214E-002,4.854214E-002,4.854214E-002,4.854214E-002,4.854214E-002,
   **   ~~~   ** Air System Named = CENTRAL SYSTEM did not converge for energy
   **   ~~~   ** Check values should be zero. Most Recent values listed first.
   **   ~~~   ** Demand-to-Supply interface energy check value iteration history trace: 960.889673,960.889673,960.889673,960.889673,960.889673,960.889673,960.889673,960.889673,960.889673,960.889673,
   **   ~~~   ** Supply-to-demand interface deck 1 energy check value iteration history trace: 1755.792086,1755.792085,1755.792085,1755.792085,1755.792085,1755.792085,1755.792085,1755.792085,1755.792085,1755.792085,
   ** Warning ** SimHVAC: Maximum iterations (20) exceeded for all HVAC loops, at ANNUAL, 02/13 18:00 - 18:05
   **   ~~~   ** The solution for one or more of the Air Loop HVAC systems did not appear to converge
   **   ~~~   ** Air System Named = CENTRAL SYSTEM did not converge for mass flow rate
   **   ~~~   ** Check values should be zero. Most Recent values listed first.
   **   ~~~   ** Demand-to-Supply interface mass flow rate check value iteration history trace: 0.102201,0.102201,0.102201,0.102201,0.102201,0.102201,0.102201,0.102201,0.102201,0.102201,
   **   ~~~   ** Supply-to-demand interface deck 1 mass flow rate check value iteration history trace: 0.102201,0.102201,0.102201,0.102201,0.102201,0.102201,0.102201,0.102201,0.102201,0.102201,
   **   ~~~   ** Air System Named = CENTRAL SYSTEM did not converge for energy
   **   ~~~   ** Check values should be zero. Most Recent values listed first.
   **   ~~~   ** Demand-to-Supply interface energy check value iteration history trace: 2018.507403,2018.507403,2018.507402,2018.507402,2018.507402,2018.507402,2018.507402,2018.507402,2018.507402,2018.507401,
   **   ~~~   ** Supply-to-demand interface deck 1 energy check value iteration history trace: 3047.931996,3047.931996,3047.931996,3047.931996,3047.931996,3047.931995,3047.931995,3047.931995,3047.931995,3047.931995,
   ** Warning ** SimHVAC: Maximum iterations (20) exceeded for all HVAC loops, at ANNUAL, 02/26 08:20 - 08:25
   **   ~~~   ** The solution for one or more of the Air Loop HVAC systems did not appear to converge
   **   ~~~   ** Air System Named = CENTRAL SYSTEM did not converge for mass flow rate
   **   ~~~   ** Check values should be zero. Most Recent values listed first.
   **   ~~~   ** Demand-to-Supply interface mass flow rate check value iteration history trace: 6.002541E-002,6.002541E-002,6.002541E-002,6.002541E-002,6.002541E-002,6.002541E-002,6.002541E-002,6.002541E-002,6.002541E-002,6.002541E-002,
   **   ~~~   ** Supply-to-demand interface deck 1 mass flow rate check value iteration history trace: 6.002541E-002,6.002541E-002,6.002541E-002,6.002541E-002,6.002541E-002,6.002541E-002,6.002541E-002,6.002541E-002,6.002541E-002,6.002541E-002,
   **   ~~~   ** Air System Named = CENTRAL SYSTEM did not converge for energy
   **   ~~~   ** Check values should be zero. Most Recent values listed first.
   **   ~~~   ** Demand-to-Supply interface energy check value iteration history trace: 1188.872601,1188.872601,1188.872601,1188.872601,1188.872601,1188.872601,1188.872601,1188.872601,1188.872601,1188.872601,
   **   ~~~   ** Supply-to-demand interface deck 1 energy check value iteration history trace: 2041.116372,2041.116372,2041.116372,2041.116372,2041.116372,2041.116372,2041.116372,2041.116372,2041.116372,2041.116372,
   ** Warning ** SimHVAC: Maximum iterations (20) exceeded for all HVAC loops, at ANNUAL, 03/07 08:15 - 08:30
   **   ~~~   ** The solution for one or more of the Air Loop HVAC systems did not appear to converge
   **   ~~~   ** Air System Named = CENTRAL SYSTEM did not converge for mass flow rate
   **   ~~~   ** Check values should be zero. Most Recent values listed first.
   **   ~~~   ** Demand-to-Supply interface mass flow rate check value iteration history trace: 6.736478E-002,6.736478E-002,6.736478E-002,6.736478E-002,6.736478E-002,6.736478E-002,6.736478E-002,6.736478E-002,6.736478E-002,6.736478E-002,
   **   ~~~   ** Supply-to-demand interface deck 1 mass flow rate check value iteration history trace: 6.736478E-002,6.736478E-002,6.736478E-002,6.736478E-002,6.736478E-002,6.736478E-002,6.736478E-002,6.736478E-002,6.736478E-002,6.736478E-002,
   **   ~~~   ** Air System Named = CENTRAL SYSTEM did not converge for energy
   **   ~~~   ** Check values should be zero. Most Recent values listed first.
   **   ~~~   ** Demand-to-Supply interface energy check value iteration history trace: 1334.933400,1334.933400,1334.933400,1334.933399,1334.933399,1334.933399,1334.933399,1334.933399,1334.933399,1334.933399,
   **   ~~~   ** Supply-to-demand interface deck 1 energy check value iteration history trace: 2256.938324,2256.938324,2256.938324,2256.938324,2256.938324,2256.938323,2256.938323,2256.938323,2256.938323,2256.938323,
   ** Warning ** SimHVAC: Maximum iterations (20) exceeded for all HVAC loops, at ANNUAL, 03/12 08:30 - 08:45
   **   ~~~   ** The solution for one or more of the Air Loop HVAC systems did not appear to converge
   **   ~~~   ** Air System Named = CENTRAL SYSTEM did not converge for mass flow rate
   **   ~~~   ** Check values should be zero. Most Recent values listed first.
   **   ~~~   ** Demand-to-Supply interface mass flow rate check value iteration history trace: 7.641567E-002,7.641567E-002,7.641567E-002,7.641567E-002,7.641567E-002,7.641567E-002,7.641567E-002,7.641567E-002,7.641567E-002,7.641567E-002,
   **   ~~~   ** Supply-to-demand interface deck 1 mass flow rate check value iteration history trace: 7.641567E-002,7.641567E-002,7.641567E-002,7.641567E-002,7.641567E-002,7.641567E-002,7.641567E-002,7.641567E-002,7.641567E-002,7.641567E-002,
   **   ~~~   ** Air System Named = CENTRAL SYSTEM did not converge for energy
   **   ~~~   ** Check values should be zero. Most Recent values listed first.
   **   ~~~   ** Demand-to-Supply interface energy check value iteration history trace: 1514.224563,1514.224563,1514.224563,1514.224563,1514.224563,1514.224563,1514.224563,1514.224562,1514.224562,1514.224562,
   **   ~~~   ** Supply-to-demand interface deck 1 energy check value iteration history trace: 2539.363933,2539.363933,2539.363933,2539.363933,2539.363933,2539.363933,2539.363933,2539.363933,2539.363932,2539.363932,
   ** Warning ** SimHVAC: Maximum iterations (20) exceeded for all HVAC loops, at ANNUAL, 03/17 08:15 - 08:18
   **   ~~~   ** The solution for one or more of the Air Loop HVAC systems did not appear to converge
   **   ~~~   ** Air System Named = CENTRAL SYSTEM did not converge for mass flow rate
   **   ~~~   ** Check values should be zero. Most Recent values listed first.
   **   ~~~   ** Demand-to-Supply interface mass flow rate check value iteration history trace: 0.101186,0.101186,0.101186,0.101186,0.101186,0.101186,0.101186,0.101186,0.101186,0.101186,
   **   ~~~   ** Supply-to-demand interface deck 1 mass flow rate check value iteration history trace: 0.101186,0.101186,0.101186,0.101186,0.101186,0.101186,0.101186,0.101186,0.101186,0.101186,
   **   ~~~   ** Air System Named = CENTRAL SYSTEM did not converge for energy
   **   ~~~   ** Check values should be zero. Most Recent values listed first.
   **   ~~~   ** Demand-to-Supply interface energy check value iteration history trace: 1999.848098,1999.848098,1999.848098,1999.848098,1999.848098,1999.848098,1999.848098,1999.848097,1999.848097,1999.848097,
   **   ~~~   ** Supply-to-demand interface deck 1 energy check value iteration history trace: 3000.920507,3000.920507,3000.920507,3000.920507,3000.920507,3000.920506,3000.920506,3000.920506,3000.920506,3000.920506,
   ** Warning ** SimHVAC: Maximum iterations (20) exceeded for all HVAC loops, at ANNUAL, 03/24 07:30 - 07:45
   **   ~~~   ** The solution for one or more of the Air Loop HVAC systems did not appear to converge
   **   ~~~   ** Air System Named = CENTRAL SYSTEM did not converge for energy
   **   ~~~   ** Check values should be zero. Most Recent values listed first.
   **   ~~~   ** Demand-to-Supply interface energy check value iteration history trace: 142.229655,142.229655,142.229655,142.229655,142.229655,142.229655,142.229655,142.229655,142.229655,142.229655,
   **   ~~~   ** Supply-to-demand interface deck 1 energy check value iteration history trace: 73.497048,73.497048,73.497048,73.497048,73.497048,73.497048,73.497048,73.497048,73.497048,73.497048,
   ** Warning ** SimHVAC: Maximum iterations (20) exceeded for all HVAC loops, at ANNUAL, 04/05 08:42 - 08:45
   **   ~~~   ** The solution for one or more of the Air Loop HVAC systems did not appear to converge
   **   ~~~   ** Air System Named = CENTRAL SYSTEM did not converge for mass flow rate
   **   ~~~   ** Check values should be zero. Most Recent values listed first.
   **   ~~~   ** Demand-to-Supply interface mass flow rate check value iteration history trace: 7.142042E-002,7.142042E-002,7.142042E-002,7.142042E-002,7.142042E-002,7.142042E-002,7.142042E-002,7.142042E-002,7.142042E-002,7.142042E-002,
   **   ~~~   ** Supply-to-demand interface deck 1 mass flow rate check value iteration history trace: 7.142042E-002,7.142042E-002,7.142042E-002,7.142042E-002,7.142042E-002,7.142042E-002,7.142042E-002,7.142042E-002,7.142042E-002,7.142042E-002,
   **   ~~~   ** Air System Named = CENTRAL SYSTEM did not converge for energy
   **   ~~~   ** Check values should be zero. Most Recent values listed first.
   **   ~~~   ** Demand-to-Supply interface energy check value iteration history trace: 1680.869662,1680.869662,1680.869663,1680.869663,1680.869664,1680.869664,1680.869665,1680.869665,1680.869665,1680.869666,
   **   ~~~   ** Supply-to-demand interface deck 1 energy check value iteration history trace: 866.371467,866.371468,866.371468,866.371468,866.371468,866.371469,866.371469,866.371469,866.371469,866.371469,
   ** Warning ** SimHVAC: Maximum iterations (20) exceeded for all HVAC loops, at ANNUAL, 04/12 08:42 - 08:43
   **   ~~~   ** The solution for one or more of the Air Loop HVAC systems did not appear to converge
   **   ~~~   ** Air System Named = CENTRAL SYSTEM did not converge for mass flow rate
   **   ~~~   ** Check values should be zero. Most Recent values listed first.
   **   ~~~   ** Demand-to-Supply interface mass flow rate check value iteration history trace: 0.236374,0.236374,0.236374,0.236374,0.236374,0.236374,0.236374,0.236374,0.236374,0.236374,
   **   ~~~   ** Supply-to-demand interface deck 1 mass flow rate check value iteration history trace: 0.236374,0.236374,0.236374,0.236374,0.236374,0.236374,0.236374,0.236374,0.236374,0.236374,
   **   ~~~   ** Air System Named = CENTRAL SYSTEM did not converge for energy
   **   ~~~   ** Check values should be zero. Most Recent values listed first.
   **   ~~~   ** Demand-to-Supply interface energy check value iteration history trace: 5589.401494,5589.401495,5589.401496,5589.401498,5589.401499,5589.401500,5589.401502,5589.401503,5589.401504,5589.401506,
   **   ~~~   ** Supply-to-demand interface deck 1 energy check value iteration history trace: 2827.945729,2827.945729,2827.945730,2827.945731,2827.945732,2827.945732,2827.945733,2827.945734,2827.945734,2827.945735,
   ************* Simulation Error Summary *************
   ** Warning ** The following Report Variables were requested but not generated -- check.rdd file
   **   ~~~   ** Either the IDF did not contain these elements, the variable name is misspelled,
   **   ~~~   ** or the requested variable is an advanced output which requires Output : Diagnostics, DisplayAdvancedReportVariables;
   ************* Key=*, VarName=BASEBOARD TOTAL HEATING ENERGY, Frequency=
   ************* Key=*, VarName=WATER HEATER NATURALGAS ENERGY, Frequency=
   ************* Key=*, VarName=COOLING COIL TOTAL HEATING ENERGY, Frequency=
   ************* There are 34 unused schedules in input.
   ************* There are 388 unused week schedules in input.
   ************* There are 396 unused day schedules in input.
   ************* Use Output:Diagnostics,DisplayUnusedSchedules; to see them.
   *************
   ************* ===== Recurring Error Summary =====
   ************* The following recurring error messages occurred.
   *************
   *************  ** Warning ** "TOTAL HOT WATER LOAD" - Target water temperature should be less than or equal to the hot water temperature error continues...
   *************  **   ~~~   **   This error occurred 135499 total times;
   *************  **   ~~~   **   during Warmup 0 times;
   *************  **   ~~~   **   during Sizing 0 times.
   *************  **   ~~~   **   Max=10.687246  Min=1.151510E-003
   *************
   *************  ** Warning ** SimHVAC: Exceeding Maximum iterations for all HVAC loops, during ANNUAL continues
   *************  **   ~~~   **   This error occurred 14 total times;
   *************  **   ~~~   **   during Warmup 0 times;
   *************  **   ~~~   **   during Sizing 0 times.
   *************
   *************
   ************* ===== Final Error Summary =====
   ************* The following error categories occurred.  Consider correcting or noting.
   ************* Nominally Unused Constructions
   ************* ..The nominally unused constructions warning is provided to alert you to potential conditions that can cause
   ************* ..extra time during simulation. Each construction is calculated by the algorithm indicated in the HeatBalanceAlgorithm
   ************* ..object. You may remove the constructions indicated (when you use the DisplayExtraWarnings option).
   *************
   ************* EnergyPlus Warmup Error Summary. During Warmup: 1 Warning; 0 Severe Errors.
   ************* EnergyPlus Sizing Error Summary. During Sizing: 4 Warning; 0 Severe Errors.
   ************* EnergyPlus Completed Successfully-- 135544 Warning; 0 Severe Errors; Elapsed Time=00hr 01min 41.31sec
