Program Version,EnergyPlus, Version 22.2.0-c249759bad, YMD=2023.09.01 14:36,
   ************* Beginning Zone Sizing Calculations
   ** Warning ** ProcessScheduleInput: Schedule:Constant="ALWAYS ON DISCRETE", Schedule Type Limits Name="ONOFF" not found -- will not be validated
   ** Warning ** Foundation:Kiva="KIVA FOUNDATION", no Interior Horizontal Insulation Material Name defined
   **   ~~~   ** Interior Horizontal Insulation Depth will not be used.
   ** Warning ** CheckUsedConstructions: There are 15 nominally unused constructions in input.
   **   ~~~   ** Each Unused construction is shown.
   ************* Construction=INTERIOR FLOOR
   ************* Construction=INTERIOR WINDOW
   ************* Construction=EXTERIOR DOOR
   ************* Construction=INTERIOR DOOR
   ************* Construction=GABLE CONSTRUCTION
   ************* Construction=CRAWL_FLOOR
   ************* Construction=INSULATED PIPE
   ************* Construction=PLAIN PIPE
   ************* Construction=TDD PIPE
   ************* Construction=TDD DOME
   ************* Construction=TDD DIFFUSER
   ************* Construction=CRAWL WALL
   ************* Construction=CEILING-FLOOR-LAYER
   ************* Construction=SLAB CONSTRUCTION W FULL R10 INSULATION
   ************* Construction=SLAB CONSTRUCTION W FULL R5 INSULATION
   ** Warning ** GetDXCoils: Coil:Heating:DX:SingleSpeed="DX_HEATING_COIL" curve values
   **   ~~~   ** ... Defrost Energy Input Ratio Function of Temperature Curve Name = DEFROSTEIR output is not equal to 1.0 (+ or - 10%) at rated conditions.
   **   ~~~   ** ... Curve output at rated conditions = 0.152
   ************* Beginning System Sizing Calculations
   ************* Beginning Plant Sizing Calculations
   ** Warning ** SizeDXCoil Coil:Cooling:DX:SingleSpeed DX_COOLING_COIL
   **   ~~~   ** ...Gross Rated Total Cooling Capacity [W] will be limited by the maximum rated volume flow per rated total capacity ratio.
   **   ~~~   ** ...DX coil volume flow rate ( m3/s ) = 0.505970
   **   ~~~   ** ...Requested capacity ( W ) = 6907.569
   **   ~~~   ** ...Requested flow/capacity ratio ( m3/s/W ) = 7.324E-005
   **   ~~~   ** ...Maximum flow/capacity ratio ( m3/s/W ) = 6.041E-005
   **   ~~~   ** ...Adjusted capacity ( W ) = 8375.601
   ** Warning ** Coil:WaterHeating:AirToWaterHeatPump:Wrapped "HEAT PUMP WATER HEATER EVAPORATOR": Rated air volume flow rate per watt of rated total water heating capacity is out of range
   **   ~~~   ** Min Rated Vol Flow Per Watt=[4.027E-005], Rated Vol Flow Per Watt=[1.386E-004], Max Rated Vol Flow Per Watt=[8.056E-005]. See Input-Output Reference Manual for valid range.
   ** Warning ** Water heater = WATER HEATER TANK:  Recovery Efficiency and Energy Factor could not be calculated during the test for standard ratings
   **   ~~~   ** Setpoint was never recovered and/or heater never turned on
   ** Warning ** Check input. Pump nominal power or motor efficiency is set to 0, for pump=MAINS PRESSURE
   ** Warning ** Output:Meter: invalid Key Name="ELECTRIC_RANGE:INTERIOREQUIPMENT:ELECTRICITY" - not found.
   ** Warning ** Output:Meter: invalid Key Name="ELECTRIC_DRYER:INTERIOREQUIPMENT:ELECTRICITY" - not found.
   ** Warning ** Output:Meter: invalid Key Name="HEATRECOVERY:ELECTRICITY" - not found.
   ** Warning ** Output:Meter: invalid Key Name="HEATING:NATURALGAS" - not found.
   ** Warning ** Output:Meter: invalid Key Name="WATERSYSTEMS:NATURALGAS" - not found.
   ** Warning ** Output:Meter: invalid Key Name="PROPANE:FACILITY" - not found.
   ** Warning ** Output:Meter: invalid Key Name="HEATING:PROPANE" - not found.
   ************* Testing Individual Branch Integrity
   ************* All Branches passed integrity testing
   ************* Testing Individual Supply Air Path Integrity
   ************* All Supply Air Paths passed integrity testing
   ************* Testing Individual Return Air Path Integrity
   ************* All Return Air Paths passed integrity testing
   ************* No node connection errors were found.
   ************* Beginning Simulation
   ** Warning ** AirflowNetwork::Solver::validate_distribution: Heat pump water heater is simulated along with an AirflowNetwork but is not included in the AirflowNetwork.
   ** Warning ** CalcEquipmentFlowRates: "TOTAL HOT WATER LOAD" - Target water temperature is greater than the hot water temperature by (1.67 C)
   **   ~~~   **  Environment=EXTREME_WINTER, at Simulation time=01/13 06:00 - 06:15
   **   ~~~   ** ...target water temperature     = 53.33 C
   **   ~~~   ** ...hot water temperature        = 51.67 C
   **   ~~~   ** ...Target water temperature should be less than or equal to the hot water temperature. Verify temperature setpoints and schedules.
   ** Warning ** SimHVAC: Maximum iterations (20) exceeded for all HVAC loops, at ANNUAL, 01/17 19:30 - 19:38
   **   ~~~   ** The solution for one or more of the Air Loop HVAC systems did not appear to converge
   **   ~~~   ** Air System Named = CENTRAL SYSTEM did not converge for mass flow rate
   **   ~~~   ** Check values should be zero. Most Recent values listed first.
   **   ~~~   ** Demand-to-Supply interface mass flow rate check value iteration history trace: 0.108993,0.108993,0.108993,0.108993,0.108993,0.108993,0.108993,0.108993,0.108993,0.108993,
   **   ~~~   ** Supply-to-demand interface deck 1 mass flow rate check value iteration history trace: 0.108993,0.108993,0.108993,0.108993,0.108993,0.108993,0.108993,0.108993,0.108993,0.108993,
   **   ~~~   ** Air System Named = CENTRAL SYSTEM did not converge for energy
   **   ~~~   ** Check values should be zero. Most Recent values listed first.
   **   ~~~   ** Demand-to-Supply interface energy check value iteration history trace: 2149.258453,2149.258453,2149.258452,2149.258452,2149.258452,2149.258452,2149.258452,2149.258452,2149.258452,2149.258451,
   **   ~~~   ** Supply-to-demand interface deck 1 energy check value iteration history trace: 3268.074663,3268.074662,3268.074662,3268.074662,3268.074662,3268.074662,3268.074661,3268.074661,3268.074661,3268.074661,
   ** Warning ** SimHVAC: Maximum iterations (20) exceeded for all HVAC loops, at ANNUAL, 01/28 10:33 - 10:36
   **   ~~~   ** The solution for one or more of the Air Loop HVAC systems did not appear to converge
   **   ~~~   ** Air System Named = CENTRAL SYSTEM did not converge for mass flow rate
   **   ~~~   ** Check values should be zero. Most Recent values listed first.
   **   ~~~   ** Demand-to-Supply interface mass flow rate check value iteration history trace: 6.260549E-002,6.260549E-002,6.260549E-002,6.260549E-002,6.260549E-002,6.260549E-002,6.260549E-002,6.260549E-002,6.260549E-002,6.260549E-002,
   **   ~~~   ** Supply-to-demand interface deck 1 mass flow rate check value iteration history trace: 6.260549E-002,6.260549E-002,6.260549E-002,6.260549E-002,6.260549E-002,6.260549E-002,6.260549E-002,6.260549E-002,6.260549E-002,6.260549E-002,
   **   ~~~   ** Air System Named = CENTRAL SYSTEM did not converge for energy
   **   ~~~   ** Check values should be zero. Most Recent values listed first.
   **   ~~~   ** Demand-to-Supply interface energy check value iteration history trace: 1234.918321,1234.918321,1234.918321,1234.918321,1234.918321,1234.918321,1234.918321,1234.918321,1234.918321,1234.918321,
   **   ~~~   ** Supply-to-demand interface deck 1 energy check value iteration history trace: 2242.760520,2242.760520,2242.760520,2242.760520,2242.760520,2242.760520,2242.760520,2242.760519,2242.760519,2242.760519,
   ** Warning ** WetBulb not converged after 101 iterations(PsyTwbFnTdbWPb)
   **   ~~~   **  Routine=Unknown, Environment=ANNUAL, at Simulation time=02/19 17:30 - 17:34
   **   ~~~   **  Input Temperature = 5.75
   **   ~~~   **  Input Humidity Ratio= 2.066191E-003
   **   ~~~   **  Input Pressure = 87092.75
   **   ~~~   **  Resultant Temperature= -6.17E-003
   ** Warning ** SimHVAC: Maximum iterations (20) exceeded for all HVAC loops, at ANNUAL, 04/08 08:15 - 08:16
   **   ~~~   ** The solution for one or more of the Air Loop HVAC systems did not appear to converge
   **   ~~~   ** Air System Named = CENTRAL SYSTEM did not converge for mass flow rate
   **   ~~~   ** Check values should be zero. Most Recent values listed first.
   **   ~~~   ** Demand-to-Supply interface mass flow rate check value iteration history trace: 5.657057E-002,5.657057E-002,5.657057E-002,5.657057E-002,5.657057E-002,5.657057E-002,5.657057E-002,5.657057E-002,5.657057E-002,5.657057E-002,
   **   ~~~   ** Supply-to-demand interface deck 1 mass flow rate check value iteration history trace: 5.657057E-002,5.657057E-002,5.657057E-002,5.657057E-002,5.657057E-002,5.657057E-002,5.657057E-002,5.657057E-002,5.657057E-002,5.657057E-002,
   **   ~~~   ** Air System Named = CENTRAL SYSTEM did not converge for energy
   **   ~~~   ** Check values should be zero. Most Recent values listed first.
   **   ~~~   ** Demand-to-Supply interface energy check value iteration history trace: 1121.108016,1121.108016,1121.108016,1121.108016,1121.108016,1121.108016,1121.108016,1121.108016,1121.108016,1121.108016,
   **   ~~~   ** Supply-to-demand interface deck 1 energy check value iteration history trace: 2027.125075,2027.125075,2027.125075,2027.125075,2027.125075,2027.125075,2027.125075,2027.125075,2027.125074,2027.125074,
   ** Warning ** SimHVAC: Maximum iterations (20) exceeded for all HVAC loops, at ANNUAL, 04/15 11:15 - 11:30
   **   ~~~   ** The solution for one or more of the Air Loop HVAC systems did not appear to converge
   **   ~~~   ** Air System Named = CENTRAL SYSTEM did not converge for mass flow rate
   **   ~~~   ** Check values should be zero. Most Recent values listed first.
   **   ~~~   ** Demand-to-Supply interface mass flow rate check value iteration history trace: 5.259068E-002,5.259068E-002,5.259068E-002,5.259068E-002,5.259068E-002,5.259068E-002,5.259068E-002,5.259068E-002,5.259068E-002,5.259068E-002,
   **   ~~~   ** Supply-to-demand interface deck 1 mass flow rate check value iteration history trace: 5.259068E-002,5.259068E-002,5.259068E-002,5.259068E-002,5.259068E-002,5.259068E-002,5.259068E-002,5.259068E-002,5.259068E-002,5.259068E-002,
   **   ~~~   ** Air System Named = CENTRAL SYSTEM did not converge for energy
   **   ~~~   ** Check values should be zero. Most Recent values listed first.
   **   ~~~   ** Demand-to-Supply interface energy check value iteration history trace: 1042.941727,1042.941727,1042.941727,1042.941727,1042.941727,1042.941727,1042.941727,1042.941727,1042.941727,1042.941727,
   **   ~~~   ** Supply-to-demand interface deck 1 energy check value iteration history trace: 1921.925789,1921.925789,1921.925789,1921.925789,1921.925789,1921.925788,1921.925788,1921.925788,1921.925788,1921.925788,
   ** Warning ** SimHVAC: Maximum iterations (20) exceeded for all HVAC loops, at ANNUAL, 05/02 08:54 - 08:55
   **   ~~~   ** The solution for one or more of the Air Loop HVAC systems did not appear to converge
   **   ~~~   ** Air System Named = CENTRAL SYSTEM did not converge for mass flow rate
   **   ~~~   ** Check values should be zero. Most Recent values listed first.
   **   ~~~   ** Demand-to-Supply interface mass flow rate check value iteration history trace: 2.671780E-002,2.671780E-002,2.671780E-002,2.671780E-002,2.671780E-002,2.671780E-002,2.671780E-002,2.671780E-002,2.671780E-002,2.671780E-002,
   **   ~~~   ** Supply-to-demand interface deck 1 mass flow rate check value iteration history trace: 2.671780E-002,2.671780E-002,2.671780E-002,2.671780E-002,2.671780E-002,2.671780E-002,2.671780E-002,2.671780E-002,2.671780E-002,2.671780E-002,
   **   ~~~   ** Air System Named = CENTRAL SYSTEM did not converge for energy
   **   ~~~   ** Check values should be zero. Most Recent values listed first.
   **   ~~~   ** Demand-to-Supply interface energy check value iteration history trace: 626.523457,626.523457,626.523457,626.523457,626.523457,626.523457,626.523457,626.523457,626.523457,626.523458,
   **   ~~~   ** Supply-to-demand interface deck 1 energy check value iteration history trace: 219.034073,219.034073,219.034073,219.034073,219.034073,219.034073,219.034073,219.034073,219.034073,219.034073,
   ** Warning ** SimHVAC: Maximum iterations (20) exceeded for all HVAC loops, at ANNUAL, 05/09 06:51 - 06:54
   **   ~~~   ** The solution for one or more of the Air Loop HVAC systems did not appear to converge
   **   ~~~   ** Air System Named = CENTRAL SYSTEM did not converge for mass flow rate
   **   ~~~   ** Check values should be zero. Most Recent values listed first.
   **   ~~~   ** Demand-to-Supply interface mass flow rate check value iteration history trace: 0.107279,0.107279,0.107279,0.107279,0.107279,0.107279,0.107279,0.107279,0.107279,0.107279,
   **   ~~~   ** Supply-to-demand interface deck 1 mass flow rate check value iteration history trace: 0.107279,0.107279,0.107279,0.107279,0.107279,0.107279,0.107279,0.107279,0.107279,0.107279,
   **   ~~~   ** Air System Named = CENTRAL SYSTEM did not converge for energy
   **   ~~~   ** Check values should be zero. Most Recent values listed first.
   **   ~~~   ** Demand-to-Supply interface energy check value iteration history trace: 2550.215043,2550.215043,2550.215043,2550.215044,2550.215044,2550.215044,2550.215044,2550.215044,2550.215044,2550.215044,
   **   ~~~   ** Supply-to-demand interface deck 1 energy check value iteration history trace: 876.807189,876.807189,876.807189,876.807189,876.807190,876.807190,876.807190,876.807190,876.807190,876.807190,
   ** Warning ** SimHVAC: Maximum iterations (20) exceeded for all HVAC loops, at ANNUAL, 05/09 07:40 - 07:43
   **   ~~~   ** The solution for one or more of the Air Loop HVAC systems did not appear to converge
   **   ~~~   ** Air System Named = CENTRAL SYSTEM did not converge for mass flow rate
   **   ~~~   ** Check values should be zero. Most Recent values listed first.
   **   ~~~   ** Demand-to-Supply interface mass flow rate check value iteration history trace: 7.024472E-002,7.024472E-002,7.024472E-002,7.024472E-002,7.024472E-002,7.024472E-002,7.024472E-002,7.024472E-002,7.024472E-002,7.024472E-002,
   **   ~~~   ** Supply-to-demand interface deck 1 mass flow rate check value iteration history trace: 7.024472E-002,7.024472E-002,7.024472E-002,7.024472E-002,7.024472E-002,7.024472E-002,7.024472E-002,7.024472E-002,7.024472E-002,7.024472E-002,
   **   ~~~   ** Air System Named = CENTRAL SYSTEM did not converge for energy
   **   ~~~   ** Check values should be zero. Most Recent values listed first.
   **   ~~~   ** Demand-to-Supply interface energy check value iteration history trace: 1654.628311,1654.628311,1654.628311,1654.628311,1654.628312,1654.628312,1654.628312,1654.628312,1654.628312,1654.628312,
   **   ~~~   ** Supply-to-demand interface deck 1 energy check value iteration history trace: 565.616350,565.616350,565.616350,565.616350,565.616350,565.616350,565.616350,565.616350,565.616350,565.616350,
   ** Warning ** SimHVAC: Maximum iterations (20) exceeded for all HVAC loops, at ANNUAL, 05/13 10:00 - 10:15
   **   ~~~   ** The solution for one or more of the Air Loop HVAC systems did not appear to converge
   **   ~~~   ** Air System Named = CENTRAL SYSTEM did not converge for mass flow rate
   **   ~~~   ** Check values should be zero. Most Recent values listed first.
   **   ~~~   ** Demand-to-Supply interface mass flow rate check value iteration history trace: 4.595422E-002,4.595422E-002,4.595422E-002,4.595422E-002,4.595422E-002,4.595422E-002,4.595422E-002,4.595422E-002,4.595422E-002,4.595422E-002,
   **   ~~~   ** Supply-to-demand interface deck 1 mass flow rate check value iteration history trace: 4.595422E-002,4.595422E-002,4.595422E-002,4.595422E-002,4.595422E-002,4.595422E-002,4.595422E-002,4.595422E-002,4.595422E-002,4.595422E-002,
   **   ~~~   ** Air System Named = CENTRAL SYSTEM did not converge for energy
   **   ~~~   ** Check values should be zero. Most Recent values listed first.
   **   ~~~   ** Demand-to-Supply interface energy check value iteration history trace: 1091.694504,1091.694504,1091.694504,1091.694504,1091.694504,1091.694505,1091.694505,1091.694505,1091.694505,1091.694505,
   **   ~~~   ** Supply-to-demand interface deck 1 energy check value iteration history trace: 362.506842,362.506842,362.506842,362.506842,362.506842,362.506842,362.506842,362.506842,362.506842,362.506842,
   ** Warning ** SimHVAC: Maximum iterations (20) exceeded for all HVAC loops, at ANNUAL, 09/28 06:30 - 06:45
   **   ~~~   ** The solution for one or more of the Air Loop HVAC systems did not appear to converge
   **   ~~~   ** Air System Named = CENTRAL SYSTEM did not converge for mass flow rate
   **   ~~~   ** Check values should be zero. Most Recent values listed first.
   **   ~~~   ** Demand-to-Supply interface mass flow rate check value iteration history trace: 7.429569E-002,7.429569E-002,7.429569E-002,7.429569E-002,7.429569E-002,7.429569E-002,7.429569E-002,7.429569E-002,7.429569E-002,7.429569E-002,
   **   ~~~   ** Supply-to-demand interface deck 1 mass flow rate check value iteration history trace: 7.429569E-002,7.429569E-002,7.429569E-002,7.429569E-002,7.429569E-002,7.429569E-002,7.429569E-002,7.429569E-002,7.429569E-002,7.429569E-002,
   **   ~~~   ** Air System Named = CENTRAL SYSTEM did not converge for energy
   **   ~~~   ** Check values should be zero. Most Recent values listed first.
   **   ~~~   ** Demand-to-Supply interface energy check value iteration history trace: 1472.166811,1472.166810,1472.166810,1472.166810,1472.166810,1472.166810,1472.166810,1472.166810,1472.166810,1472.166810,
   **   ~~~   ** Supply-to-demand interface deck 1 energy check value iteration history trace: 2438.701412,2438.701412,2438.701411,2438.701411,2438.701411,2438.701411,2438.701411,2438.701411,2438.701411,2438.701410,
   ** Warning ** SimHVAC: Maximum iterations (20) exceeded for all HVAC loops, at ANNUAL, 10/13 16:45 - 17:00
   **   ~~~   ** The solution for one or more of the Air Loop HVAC systems did not appear to converge
   **   ~~~   ** Air System Named = CENTRAL SYSTEM did not converge for mass flow rate
   **   ~~~   ** Check values should be zero. Most Recent values listed first.
   **   ~~~   ** Demand-to-Supply interface mass flow rate check value iteration history trace: 6.740993E-002,6.740993E-002,6.740993E-002,6.740993E-002,6.740993E-002,6.740993E-002,6.740993E-002,6.740993E-002,6.740993E-002,6.740993E-002,
   **   ~~~   ** Supply-to-demand interface deck 1 mass flow rate check value iteration history trace: 6.740993E-002,6.740993E-002,6.740993E-002,6.740993E-002,6.740993E-002,6.740993E-002,6.740993E-002,6.740993E-002,6.740993E-002,6.740993E-002,
   **   ~~~   ** Air System Named = CENTRAL SYSTEM did not converge for energy
   **   ~~~   ** Check values should be zero. Most Recent values listed first.
   **   ~~~   ** Demand-to-Supply interface energy check value iteration history trace: 1612.869191,1612.869192,1612.869192,1612.869192,1612.869192,1612.869193,1612.869193,1612.869193,1612.869194,1612.869194,
   **   ~~~   ** Supply-to-demand interface deck 1 energy check value iteration history trace: 473.954905,473.954905,473.954906,473.954906,473.954906,473.954906,473.954906,473.954906,473.954906,473.954906,
   ** Warning ** SimHVAC: Maximum iterations (20) exceeded for all HVAC loops, at ANNUAL, 10/28 11:15 - 11:30
   **   ~~~   ** The solution for one or more of the Air Loop HVAC systems did not appear to converge
   **   ~~~   ** Air System Named = CENTRAL SYSTEM did not converge for mass flow rate
   **   ~~~   ** Check values should be zero. Most Recent values listed first.
   **   ~~~   ** Demand-to-Supply interface mass flow rate check value iteration history trace: 1.545620E-002,1.545620E-002,1.545620E-002,1.545620E-002,1.545620E-002,1.545620E-002,1.545620E-002,1.545620E-002,1.545620E-002,1.545620E-002,
   **   ~~~   ** Supply-to-demand interface deck 1 mass flow rate check value iteration history trace: 1.545620E-002,1.545620E-002,1.545620E-002,1.545620E-002,1.545620E-002,1.545620E-002,1.545620E-002,1.545620E-002,1.545620E-002,1.545620E-002,
   **   ~~~   ** Air System Named = CENTRAL SYSTEM did not converge for energy
   **   ~~~   ** Check values should be zero. Most Recent values listed first.
   **   ~~~   ** Demand-to-Supply interface energy check value iteration history trace: 361.341692,361.341692,361.341692,361.341692,361.341692,361.341692,361.341692,361.341692,361.341692,361.341693,
   **   ~~~   ** Supply-to-demand interface deck 1 energy check value iteration history trace: 114.346573,114.346573,114.346573,114.346573,114.346573,114.346573,114.346573,114.346574,114.346574,114.346574,
   ** Warning ** SimHVAC: Maximum iterations (20) exceeded for all HVAC loops, at ANNUAL, 10/28 11:21 - 11:24
   **   ~~~   ** The solution for one or more of the Air Loop HVAC systems did not appear to converge
   **   ~~~   ** Air System Named = CENTRAL SYSTEM did not converge for mass flow rate
   **   ~~~   ** Check values should be zero. Most Recent values listed first.
   **   ~~~   ** Demand-to-Supply interface mass flow rate check value iteration history trace: 2.472245E-002,2.472245E-002,2.472245E-002,2.472245E-002,2.472245E-002,2.472245E-002,2.472245E-002,2.472245E-002,2.472245E-002,2.472245E-002,
   **   ~~~   ** Supply-to-demand interface deck 1 mass flow rate check value iteration history trace: 2.472245E-002,2.472245E-002,2.472245E-002,2.472245E-002,2.472245E-002,2.472245E-002,2.472245E-002,2.472245E-002,2.472245E-002,2.472245E-002,
   **   ~~~   ** Air System Named = CENTRAL SYSTEM did not converge for energy
   **   ~~~   ** Check values should be zero. Most Recent values listed first.
   **   ~~~   ** Demand-to-Supply interface energy check value iteration history trace: 578.054282,578.054282,578.054282,578.054282,578.054282,578.054282,578.054282,578.054283,578.054283,578.054283,
   **   ~~~   ** Supply-to-demand interface deck 1 energy check value iteration history trace: 182.950329,182.950329,182.950329,182.950329,182.950329,182.950329,182.950329,182.950329,182.950329,182.950329,
   ** Warning ** SimHVAC: Maximum iterations (20) exceeded for all HVAC loops, at ANNUAL, 10/31 20:38 - 20:45
   **   ~~~   ** The solution for one or more of the Air Loop HVAC systems did not appear to converge
   **   ~~~   ** Air System Named = CENTRAL SYSTEM did not converge for mass flow rate
   **   ~~~   ** Check values should be zero. Most Recent values listed first.
   **   ~~~   ** Demand-to-Supply interface mass flow rate check value iteration history trace: 8.182196E-002,8.182196E-002,8.182196E-002,8.182196E-002,8.182196E-002,8.182196E-002,8.182196E-002,8.182196E-002,8.182196E-002,8.182196E-002,
   **   ~~~   ** Supply-to-demand interface deck 1 mass flow rate check value iteration history trace: 8.182196E-002,8.182196E-002,8.182196E-002,8.182196E-002,8.182196E-002,8.182196E-002,8.182196E-002,8.182196E-002,8.182196E-002,8.182196E-002,
   **   ~~~   ** Air System Named = CENTRAL SYSTEM did not converge for energy
   **   ~~~   ** Check values should be zero. Most Recent values listed first.
   **   ~~~   ** Demand-to-Supply interface energy check value iteration history trace: 1922.292711,1922.292711,1922.292711,1922.292711,1922.292711,1922.292711,1922.292712,1922.292712,1922.292712,1922.292712,
   **   ~~~   ** Supply-to-demand interface deck 1 energy check value iteration history trace: 625.335088,625.335088,625.335088,625.335088,625.335088,625.335088,625.335088,625.335088,625.335088,625.335088,
   ** Warning ** SimHVAC: Maximum iterations (20) exceeded for all HVAC loops, at ANNUAL, 11/06 08:04 - 08:06
   **   ~~~   ** The solution for one or more of the Air Loop HVAC systems did not appear to converge
   **   ~~~   ** Air System Named = CENTRAL SYSTEM did not converge for mass flow rate
   **   ~~~   ** Check values should be zero. Most Recent values listed first.
   **   ~~~   ** Demand-to-Supply interface mass flow rate check value iteration history trace: 4.987931E-002,4.987931E-002,4.987931E-002,4.987931E-002,4.987931E-002,4.987931E-002,4.987931E-002,4.987931E-002,4.987931E-002,4.987931E-002,
   **   ~~~   ** Supply-to-demand interface deck 1 mass flow rate check value iteration history trace: 4.987931E-002,4.987931E-002,4.987931E-002,4.987931E-002,4.987931E-002,4.987931E-002,4.987931E-002,4.987931E-002,4.987931E-002,4.987931E-002,
   **   ~~~   ** Air System Named = CENTRAL SYSTEM did not converge for energy
   **   ~~~   ** Check values should be zero. Most Recent values listed first.
   **   ~~~   ** Demand-to-Supply interface energy check value iteration history trace: 983.712083,983.712083,983.712083,983.712083,983.712083,983.712082,983.712082,983.712082,983.712082,983.712082,
   **   ~~~   ** Supply-to-demand interface deck 1 energy check value iteration history trace: 1877.928755,1877.928755,1877.928755,1877.928755,1877.928755,1877.928755,1877.928755,1877.928755,1877.928755,1877.928755,
   ************* Simulation Error Summary *************
   ** Warning ** The following Report Variables were requested but not generated -- check.rdd file
   **   ~~~   ** Either the IDF did not contain these elements, the variable name is misspelled,
   **   ~~~   ** or the requested variable is an advanced output which requires Output : Diagnostics, DisplayAdvancedReportVariables;
   ************* Key=*, VarName=BASEBOARD TOTAL HEATING ENERGY, Frequency=
   ************* Key=*, VarName=WATER HEATER NATURALGAS ENERGY, Frequency=
   ************* Key=*, VarName=COOLING COIL TOTAL HEATING ENERGY, Frequency=
   ************* There are 34 unused schedules in input.
   ************* There are 388 unused week schedules in input.
   ************* There are 396 unused day schedules in input.
   ************* Use Output:Diagnostics,DisplayUnusedSchedules; to see them.
   *************
   ************* ===== Recurring Error Summary =====
   ************* The following recurring error messages occurred.
   *************
   *************  ** Warning ** "TOTAL HOT WATER LOAD" - Target water temperature should be less than or equal to the hot water temperature error continues...
   *************  **   ~~~   **   This error occurred 160621 total times;
   *************  **   ~~~   **   during Warmup 0 times;
   *************  **   ~~~   **   during Sizing 0 times.
   *************  **   ~~~   **   Max=9.942448  Min=1.357403E-004
   *************
   *************  ** Warning ** WetBulb not converged after max iterations(PsyTwbFnTdbWPb)
   *************  **   ~~~   **   This error occurred 3 total times;
   *************  **   ~~~   **   during Warmup 0 times;
   *************  **   ~~~   **   during Sizing 0 times.
   *************
   *************  ** Warning ** SimHVAC: Exceeding Maximum iterations for all HVAC loops, during ANNUAL continues
   *************  **   ~~~   **   This error occurred 4 total times;
   *************  **   ~~~   **   during Warmup 0 times;
   *************  **   ~~~   **   during Sizing 0 times.
   *************
   *************
   ************* ===== Final Error Summary =====
   ************* The following error categories occurred.  Consider correcting or noting.
   ************* Nominally Unused Constructions
   ************* ..The nominally unused constructions warning is provided to alert you to potential conditions that can cause
   ************* ..extra time during simulation. Each construction is calculated by the algorithm indicated in the HeatBalanceAlgorithm
   ************* ..object. You may remove the constructions indicated (when you use the DisplayExtraWarnings option).
   *************
   ************* EnergyPlus Warmup Error Summary. During Warmup: 1 Warning; 0 Severe Errors.
   ************* EnergyPlus Sizing Error Summary. During Sizing: 4 Warning; 0 Severe Errors.
   ************* EnergyPlus Completed Successfully-- 160660 Warning; 0 Severe Errors; Elapsed Time=00hr 06min 57.82sec
