Program Version,EnergyPlus, Version 22.2.0-c249759bad, YMD=2023.09.01 15:27,
   ************* Beginning Zone Sizing Calculations
   ** Warning ** ProcessScheduleInput: Schedule:Constant="ALWAYS ON DISCRETE", Schedule Type Limits Name="ONOFF" not found -- will not be validated
   ** Warning ** Foundation:Kiva="KIVA FOUNDATION", no Interior Horizontal Insulation Material Name defined
   **   ~~~   ** Interior Horizontal Insulation Depth will not be used.
   ** Warning ** CheckUsedConstructions: There are 15 nominally unused constructions in input.
   **   ~~~   ** Each Unused construction is shown.
   ************* Construction=INTERIOR FLOOR
   ************* Construction=INTERIOR WINDOW
   ************* Construction=EXTERIOR DOOR
   ************* Construction=INTERIOR DOOR
   ************* Construction=GABLE CONSTRUCTION
   ************* Construction=CRAWL_FLOOR
   ************* Construction=INSULATED PIPE
   ************* Construction=PLAIN PIPE
   ************* Construction=TDD PIPE
   ************* Construction=TDD DOME
   ************* Construction=TDD DIFFUSER
   ************* Construction=CRAWL WALL
   ************* Construction=CEILING-FLOOR-LAYER
   ************* Construction=SLAB CONSTRUCTION W FULL R10 INSULATION
   ************* Construction=SLAB CONSTRUCTION W FULL R5 INSULATION
   ** Warning ** GetDXCoils: Coil:Heating:DX:SingleSpeed="DX_HEATING_COIL" curve values
   **   ~~~   ** ... Defrost Energy Input Ratio Function of Temperature Curve Name = DEFROSTEIR output is not equal to 1.0 (+ or - 10%) at rated conditions.
   **   ~~~   ** ... Curve output at rated conditions = 0.152
   ************* Beginning System Sizing Calculations
   ************* Beginning Plant Sizing Calculations
   ** Warning ** SizeDXCoil Coil:Cooling:DX:SingleSpeed DX_COOLING_COIL
   **   ~~~   ** ...Gross Rated Total Cooling Capacity [W] will be limited by the maximum rated volume flow per rated total capacity ratio.
   **   ~~~   ** ...DX coil volume flow rate ( m3/s ) = 0.423607
   **   ~~~   ** ...Requested capacity ( W ) = 6575.539
   **   ~~~   ** ...Requested flow/capacity ratio ( m3/s/W ) = 6.442E-005
   **   ~~~   ** ...Maximum flow/capacity ratio ( m3/s/W ) = 6.041E-005
   **   ~~~   ** ...Adjusted capacity ( W ) = 7012.201
   ** Warning ** Coil:WaterHeating:AirToWaterHeatPump:Wrapped "HEAT PUMP WATER HEATER EVAPORATOR": Rated air volume flow rate per watt of rated total water heating capacity is out of range
   **   ~~~   ** Min Rated Vol Flow Per Watt=[4.027E-005], Rated Vol Flow Per Watt=[1.386E-004], Max Rated Vol Flow Per Watt=[8.056E-005]. See Input-Output Reference Manual for valid range.
   ** Warning ** Water heater = WATER HEATER TANK:  Recovery Efficiency and Energy Factor could not be calculated during the test for standard ratings
   **   ~~~   ** Setpoint was never recovered and/or heater never turned on
   ** Warning ** Check input. Pump nominal power or motor efficiency is set to 0, for pump=MAINS PRESSURE
   ** Warning ** Output:Meter: invalid Key Name="ELECTRIC_RANGE:INTERIOREQUIPMENT:ELECTRICITY" - not found.
   ** Warning ** Output:Meter: invalid Key Name="ELECTRIC_DRYER:INTERIOREQUIPMENT:ELECTRICITY" - not found.
   ** Warning ** Output:Meter: invalid Key Name="HEATRECOVERY:ELECTRICITY" - not found.
   ** Warning ** Output:Meter: invalid Key Name="HEATING:NATURALGAS" - not found.
   ** Warning ** Output:Meter: invalid Key Name="WATERSYSTEMS:NATURALGAS" - not found.
   ** Warning ** Output:Meter: invalid Key Name="PROPANE:FACILITY" - not found.
   ** Warning ** Output:Meter: invalid Key Name="HEATING:PROPANE" - not found.
   ************* Testing Individual Branch Integrity
   ************* All Branches passed integrity testing
   ************* Testing Individual Supply Air Path Integrity
   ************* All Supply Air Paths passed integrity testing
   ************* Testing Individual Return Air Path Integrity
   ************* All Return Air Paths passed integrity testing
   ************* No node connection errors were found.
   ************* Beginning Simulation
   ** Warning ** AirflowNetwork::Solver::validate_distribution: Heat pump water heater is simulated along with an AirflowNetwork but is not included in the AirflowNetwork.
   ** Warning ** CalcEquipmentFlowRates: "TOTAL HOT WATER LOAD" - Target water temperature is greater than the hot water temperature by (1.65 C)
   **   ~~~   **  Environment=EXTREME_WINTER, at Simulation time=01/15 06:00 - 06:15
   **   ~~~   ** ...target water temperature     = 53.33 C
   **   ~~~   ** ...hot water temperature        = 51.69 C
   **   ~~~   ** ...Target water temperature should be less than or equal to the hot water temperature. Verify temperature setpoints and schedules.
   ** Warning ** SimHVAC: Maximum iterations (20) exceeded for all HVAC loops, at ANNUAL, 01/08 09:02 - 09:04
   **   ~~~   ** The solution for one or more of the Air Loop HVAC systems did not appear to converge
   **   ~~~   ** Air System Named = CENTRAL SYSTEM did not converge for mass flow rate
   **   ~~~   ** Check values should be zero. Most Recent values listed first.
   **   ~~~   ** Demand-to-Supply interface mass flow rate check value iteration history trace: 6.378810E-002,6.378810E-002,6.378810E-002,6.378810E-002,6.378810E-002,6.378810E-002,6.378810E-002,6.378810E-002,6.378810E-002,6.378810E-002,
   **   ~~~   ** Supply-to-demand interface deck 1 mass flow rate check value iteration history trace: 6.378810E-002,6.378810E-002,6.378810E-002,6.378810E-002,6.378810E-002,6.378810E-002,6.378810E-002,6.378810E-002,6.378810E-002,6.378810E-002,
   **   ~~~   ** Air System Named = CENTRAL SYSTEM did not converge for energy
   **   ~~~   ** Check values should be zero. Most Recent values listed first.
   **   ~~~   ** Demand-to-Supply interface energy check value iteration history trace: 1264.095761,1264.095761,1264.095761,1264.095761,1264.095761,1264.095761,1264.095761,1264.095761,1264.095761,1264.095761,
   **   ~~~   ** Supply-to-demand interface deck 1 energy check value iteration history trace: 2337.259589,2337.259588,2337.259588,2337.259588,2337.259588,2337.259588,2337.259588,2337.259588,2337.259588,2337.259588,
   ** Warning ** SimHVAC: Maximum iterations (20) exceeded for all HVAC loops, at ANNUAL, 02/10 15:45 - 16:00
   **   ~~~   ** The solution for one or more of the Air Loop HVAC systems did not appear to converge
   **   ~~~   ** Air System Named = CENTRAL SYSTEM did not converge for mass flow rate
   **   ~~~   ** Check values should be zero. Most Recent values listed first.
   **   ~~~   ** Demand-to-Supply interface mass flow rate check value iteration history trace: 6.026635E-002,6.026635E-002,6.026635E-002,6.026635E-002,6.026635E-002,6.026635E-002,6.026635E-002,6.026635E-002,6.026635E-002,6.026635E-002,
   **   ~~~   ** Supply-to-demand interface deck 1 mass flow rate check value iteration history trace: 6.026635E-002,6.026635E-002,6.026635E-002,6.026635E-002,6.026635E-002,6.026635E-002,6.026635E-002,6.026635E-002,6.026635E-002,6.026635E-002,
   **   ~~~   ** Air System Named = CENTRAL SYSTEM did not converge for energy
   **   ~~~   ** Check values should be zero. Most Recent values listed first.
   **   ~~~   ** Demand-to-Supply interface energy check value iteration history trace: 1194.270719,1194.270719,1194.270719,1194.270719,1194.270719,1194.270719,1194.270719,1194.270719,1194.270719,1194.270719,
   **   ~~~   ** Supply-to-demand interface deck 1 energy check value iteration history trace: 2192.460867,2192.460867,2192.460867,2192.460867,2192.460867,2192.460867,2192.460867,2192.460867,2192.460867,2192.460867,
   ** Warning ** SimHVAC: Maximum iterations (20) exceeded for all HVAC loops, at ANNUAL, 02/10 15:45 - 15:52
   **   ~~~   ** The solution for one or more of the Air Loop HVAC systems did not appear to converge
   **   ~~~   ** Air System Named = CENTRAL SYSTEM did not converge for mass flow rate
   **   ~~~   ** Check values should be zero. Most Recent values listed first.
   **   ~~~   ** Demand-to-Supply interface mass flow rate check value iteration history trace: 6.033774E-002,6.033774E-002,6.033774E-002,6.033774E-002,6.033774E-002,6.033774E-002,6.033774E-002,6.033774E-002,6.033774E-002,6.033774E-002,
   **   ~~~   ** Supply-to-demand interface deck 1 mass flow rate check value iteration history trace: 6.033774E-002,6.033774E-002,6.033774E-002,6.033774E-002,6.033774E-002,6.033774E-002,6.033774E-002,6.033774E-002,6.033774E-002,6.033774E-002,
   **   ~~~   ** Air System Named = CENTRAL SYSTEM did not converge for energy
   **   ~~~   ** Check values should be zero. Most Recent values listed first.
   **   ~~~   ** Demand-to-Supply interface energy check value iteration history trace: 1195.671883,1195.671883,1195.671883,1195.671883,1195.671883,1195.671883,1195.671883,1195.671883,1195.671883,1195.671883,
   **   ~~~   ** Supply-to-demand interface deck 1 energy check value iteration history trace: 2194.985077,2194.985077,2194.985077,2194.985077,2194.985077,2194.985077,2194.985077,2194.985077,2194.985077,2194.985077,
   ** Warning ** SimHVAC: Maximum iterations (20) exceeded for all HVAC loops, at ANNUAL, 02/24 22:55 - 23:00
   **   ~~~   ** The solution for one or more of the Air Loop HVAC systems did not appear to converge
   **   ~~~   ** Air System Named = CENTRAL SYSTEM did not converge for mass flow rate
   **   ~~~   ** Check values should be zero. Most Recent values listed first.
   **   ~~~   ** Demand-to-Supply interface mass flow rate check value iteration history trace: 0.103692,0.103692,0.103692,0.103692,0.103692,0.103692,0.103692,0.103692,0.103692,0.103692,
   **   ~~~   ** Supply-to-demand interface deck 1 mass flow rate check value iteration history trace: 0.103692,0.103692,0.103692,0.103692,0.103692,0.103692,0.103692,0.103692,0.103692,0.103692,
   **   ~~~   ** Air System Named = CENTRAL SYSTEM did not converge for energy
   **   ~~~   ** Check values should be zero. Most Recent values listed first.
   **   ~~~   ** Demand-to-Supply interface energy check value iteration history trace: 1934.208959,1934.208959,1934.208959,1934.208959,1934.208959,1934.208959,1934.208958,1934.208958,1934.208958,1934.208958,
   **   ~~~   ** Supply-to-demand interface deck 1 energy check value iteration history trace: 2895.549242,2895.549242,2895.549242,2895.549242,2895.549241,2895.549241,2895.549241,2895.549241,2895.549240,2895.549240,
   ** Warning ** SimHVAC: Maximum iterations (20) exceeded for all HVAC loops, at ANNUAL, 02/25 11:00 - 11:15
   **   ~~~   ** The solution for one or more of the Air Loop HVAC systems did not appear to converge
   **   ~~~   ** Air System Named = CENTRAL SYSTEM did not converge for mass flow rate
   **   ~~~   ** Check values should be zero. Most Recent values listed first.
   **   ~~~   ** Demand-to-Supply interface mass flow rate check value iteration history trace: 8.388583E-002,8.388583E-002,8.388583E-002,8.388583E-002,8.388583E-002,8.388583E-002,8.388583E-002,8.388583E-002,8.388583E-002,8.388583E-002,
   **   ~~~   ** Supply-to-demand interface deck 1 mass flow rate check value iteration history trace: 8.388583E-002,8.388583E-002,8.388583E-002,8.388583E-002,8.388583E-002,8.388583E-002,8.388583E-002,8.388583E-002,8.388583E-002,8.388583E-002,
   **   ~~~   ** Air System Named = CENTRAL SYSTEM did not converge for energy
   **   ~~~   ** Check values should be zero. Most Recent values listed first.
   **   ~~~   ** Demand-to-Supply interface energy check value iteration history trace: 1662.400353,1662.400353,1662.400353,1662.400353,1662.400353,1662.400352,1662.400352,1662.400352,1662.400352,1662.400352,
   **   ~~~   ** Supply-to-demand interface deck 1 energy check value iteration history trace: 2614.552012,2614.552011,2614.552011,2614.552011,2614.552011,2614.552011,2614.552011,2614.552011,2614.552010,2614.552010,
   ** Warning ** SimHVAC: Maximum iterations (20) exceeded for all HVAC loops, at ANNUAL, 03/15 21:08 - 21:15
   **   ~~~   ** The solution for one or more of the Air Loop HVAC systems did not appear to converge
   **   ~~~   ** Air System Named = CENTRAL SYSTEM did not converge for mass flow rate
   **   ~~~   ** Check values should be zero. Most Recent values listed first.
   **   ~~~   ** Demand-to-Supply interface mass flow rate check value iteration history trace: 7.799532E-002,7.799532E-002,7.799532E-002,7.799532E-002,7.799532E-002,7.799532E-002,7.799532E-002,7.799532E-002,7.799532E-002,7.799532E-002,
   **   ~~~   ** Supply-to-demand interface deck 1 mass flow rate check value iteration history trace: 7.799532E-002,7.799532E-002,7.799532E-002,7.799532E-002,7.799532E-002,7.799532E-002,7.799532E-002,7.799532E-002,7.799532E-002,7.799532E-002,
   **   ~~~   ** Air System Named = CENTRAL SYSTEM did not converge for energy
   **   ~~~   ** Check values should be zero. Most Recent values listed first.
   **   ~~~   ** Demand-to-Supply interface energy check value iteration history trace: 1544.723086,1544.723086,1544.723086,1544.723086,1544.723086,1544.723086,1544.723086,1544.723086,1544.723086,1544.723086,
   **   ~~~   ** Supply-to-demand interface deck 1 energy check value iteration history trace: 2609.598994,2609.598994,2609.598994,2609.598994,2609.598994,2609.598993,2609.598993,2609.598993,2609.598993,2609.598993,
   ** Warning ** SimHVAC: Maximum iterations (20) exceeded for all HVAC loops, at ANNUAL, 03/19 08:34 - 08:36
   **   ~~~   ** The solution for one or more of the Air Loop HVAC systems did not appear to converge
   **   ~~~   ** Air System Named = CENTRAL SYSTEM did not converge for mass flow rate
   **   ~~~   ** Check values should be zero. Most Recent values listed first.
   **   ~~~   ** Demand-to-Supply interface mass flow rate check value iteration history trace: 8.763774E-002,8.763774E-002,8.763774E-002,8.763774E-002,8.763774E-002,8.763774E-002,8.763774E-002,8.763774E-002,8.763774E-002,8.763774E-002,
   **   ~~~   ** Supply-to-demand interface deck 1 mass flow rate check value iteration history trace: 8.763774E-002,8.763774E-002,8.763774E-002,8.763774E-002,8.763774E-002,8.763774E-002,8.763774E-002,8.763774E-002,8.763774E-002,8.763774E-002,
   **   ~~~   ** Air System Named = CENTRAL SYSTEM did not converge for energy
   **   ~~~   ** Check values should be zero. Most Recent values listed first.
   **   ~~~   ** Demand-to-Supply interface energy check value iteration history trace: 1736.725921,1736.725921,1736.725921,1736.725921,1736.725921,1736.725921,1736.725921,1736.725921,1736.725921,1736.725921,
   **   ~~~   ** Supply-to-demand interface deck 1 energy check value iteration history trace: 2923.349192,2923.349192,2923.349192,2923.349192,2923.349192,2923.349192,2923.349192,2923.349191,2923.349191,2923.349191,
   ** Warning ** SimHVAC: Maximum iterations (20) exceeded for all HVAC loops, at ANNUAL, 03/19 09:37 - 09:38
   **   ~~~   ** The solution for one or more of the Air Loop HVAC systems did not appear to converge
   **   ~~~   ** Air System Named = CENTRAL SYSTEM did not converge for mass flow rate
   **   ~~~   ** Check values should be zero. Most Recent values listed first.
   **   ~~~   ** Demand-to-Supply interface mass flow rate check value iteration history trace: 8.479585E-002,8.479585E-002,8.479585E-002,8.479585E-002,8.479585E-002,8.479585E-002,8.479585E-002,8.479585E-002,8.479585E-002,8.479585E-002,
   **   ~~~   ** Supply-to-demand interface deck 1 mass flow rate check value iteration history trace: 8.479585E-002,8.479585E-002,8.479585E-002,8.479585E-002,8.479585E-002,8.479585E-002,8.479585E-002,8.479585E-002,8.479585E-002,8.479585E-002,
   **   ~~~   ** Air System Named = CENTRAL SYSTEM did not converge for energy
   **   ~~~   ** Check values should be zero. Most Recent values listed first.
   **   ~~~   ** Demand-to-Supply interface energy check value iteration history trace: 1676.129788,1676.129788,1676.129788,1676.129788,1676.129788,1676.129788,1676.129788,1676.129788,1676.129788,1676.129788,
   **   ~~~   ** Supply-to-demand interface deck 1 energy check value iteration history trace: 2968.615451,2968.615451,2968.615451,2968.615451,2968.615451,2968.615451,2968.615451,2968.615451,2968.615451,2968.615450,
   ** Warning ** SimHVAC: Maximum iterations (20) exceeded for all HVAC loops, at ANNUAL, 04/01 19:15 - 19:20
   **   ~~~   ** The solution for one or more of the Air Loop HVAC systems did not appear to converge
   **   ~~~   ** Air System Named = CENTRAL SYSTEM did not converge for mass flow rate
   **   ~~~   ** Check values should be zero. Most Recent values listed first.
   **   ~~~   ** Demand-to-Supply interface mass flow rate check value iteration history trace: 8.552969E-002,8.552969E-002,8.552969E-002,8.552969E-002,8.552969E-002,8.552969E-002,8.552969E-002,8.552969E-002,8.552969E-002,8.552969E-002,
   **   ~~~   ** Supply-to-demand interface deck 1 mass flow rate check value iteration history trace: 8.552969E-002,8.552969E-002,8.552969E-002,8.552969E-002,8.552969E-002,8.552969E-002,8.552969E-002,8.552969E-002,8.552969E-002,8.552969E-002,
   **   ~~~   ** Air System Named = CENTRAL SYSTEM did not converge for energy
   **   ~~~   ** Check values should be zero. Most Recent values listed first.
   **   ~~~   ** Demand-to-Supply interface energy check value iteration history trace: 1681.472934,1681.472934,1681.472934,1681.472934,1681.472934,1681.472934,1681.472933,1681.472933,1681.472933,1681.472933,
   **   ~~~   ** Supply-to-demand interface deck 1 energy check value iteration history trace: 2852.861435,2852.861435,2852.861435,2852.861435,2852.861435,2852.861435,2852.861434,2852.861434,2852.861434,2852.861434,
   ** Warning ** SimHVAC: Maximum iterations (20) exceeded for all HVAC loops, at ANNUAL, 09/25 07:30 - 07:35
   **   ~~~   ** The solution for one or more of the Air Loop HVAC systems did not appear to converge
   **   ~~~   ** Air System Named = CENTRAL SYSTEM did not converge for mass flow rate
   **   ~~~   ** Check values should be zero. Most Recent values listed first.
   **   ~~~   ** Demand-to-Supply interface mass flow rate check value iteration history trace: 7.479414E-002,7.479414E-002,7.479414E-002,7.479414E-002,7.479414E-002,7.479414E-002,7.479414E-002,7.479414E-002,7.479414E-002,7.479414E-002,
   **   ~~~   ** Supply-to-demand interface deck 1 mass flow rate check value iteration history trace: 7.479414E-002,7.479414E-002,7.479414E-002,7.479414E-002,7.479414E-002,7.479414E-002,7.479414E-002,7.479414E-002,7.479414E-002,7.479414E-002,
   **   ~~~   ** Air System Named = CENTRAL SYSTEM did not converge for energy
   **   ~~~   ** Check values should be zero. Most Recent values listed first.
   **   ~~~   ** Demand-to-Supply interface energy check value iteration history trace: 1469.713063,1469.713063,1469.713063,1469.713063,1469.713063,1469.713063,1469.713063,1469.713063,1469.713063,1469.713063,
   **   ~~~   ** Supply-to-demand interface deck 1 energy check value iteration history trace: 2477.546012,2477.546012,2477.546012,2477.546012,2477.546011,2477.546011,2477.546011,2477.546011,2477.546011,2477.546011,
   ** Warning ** SimHVAC: Maximum iterations (20) exceeded for all HVAC loops, at ANNUAL, 09/26 07:15 - 07:20
   **   ~~~   ** The solution for one or more of the Air Loop HVAC systems did not appear to converge
   **   ~~~   ** Air System Named = CENTRAL SYSTEM did not converge for mass flow rate
   **   ~~~   ** Check values should be zero. Most Recent values listed first.
   **   ~~~   ** Demand-to-Supply interface mass flow rate check value iteration history trace: 7.806731E-002,7.806731E-002,7.806731E-002,7.806731E-002,7.806731E-002,7.806731E-002,7.806731E-002,7.806731E-002,7.806731E-002,7.806731E-002,
   **   ~~~   ** Supply-to-demand interface deck 1 mass flow rate check value iteration history trace: 7.806731E-002,7.806731E-002,7.806731E-002,7.806731E-002,7.806731E-002,7.806731E-002,7.806731E-002,7.806731E-002,7.806731E-002,7.806731E-002,
   **   ~~~   ** Air System Named = CENTRAL SYSTEM did not converge for energy
   **   ~~~   ** Check values should be zero. Most Recent values listed first.
   **   ~~~   ** Demand-to-Supply interface energy check value iteration history trace: 1541.797855,1541.797855,1541.797855,1541.797855,1541.797855,1541.797855,1541.797855,1541.797855,1541.797855,1541.797855,
   **   ~~~   ** Supply-to-demand interface deck 1 energy check value iteration history trace: 2593.852578,2593.852577,2593.852577,2593.852577,2593.852577,2593.852577,2593.852577,2593.852577,2593.852577,2593.852576,
   ** Warning ** SimHVAC: Maximum iterations (20) exceeded for all HVAC loops, at ANNUAL, 11/18 19:45 - 20:00
   **   ~~~   ** The solution for one or more of the Air Loop HVAC systems did not appear to converge
   **   ~~~   ** Air System Named = CENTRAL SYSTEM did not converge for mass flow rate
   **   ~~~   ** Check values should be zero. Most Recent values listed first.
   **   ~~~   ** Demand-to-Supply interface mass flow rate check value iteration history trace: 2.737777E-002,2.737777E-002,2.737777E-002,2.737777E-002,2.737777E-002,2.737777E-002,2.737777E-002,2.737777E-002,2.737777E-002,2.737777E-002,
   **   ~~~   ** Supply-to-demand interface deck 1 mass flow rate check value iteration history trace: 2.737777E-002,2.737777E-002,2.737777E-002,2.737777E-002,2.737777E-002,2.737777E-002,2.737777E-002,2.737777E-002,2.737777E-002,2.737777E-002,
   **   ~~~   ** Air System Named = CENTRAL SYSTEM did not converge for energy
   **   ~~~   ** Check values should be zero. Most Recent values listed first.
   **   ~~~   ** Demand-to-Supply interface energy check value iteration history trace: 542.360597,542.360597,542.360597,542.360597,542.360597,542.360597,542.360597,542.360597,542.360597,542.360597,
   **   ~~~   ** Supply-to-demand interface deck 1 energy check value iteration history trace: 921.982328,921.982328,921.982328,921.982328,921.982328,921.982328,921.982328,921.982328,921.982328,921.982328,
   ** Warning ** SimHVAC: Maximum iterations (20) exceeded for all HVAC loops, at ANNUAL, 11/18 19:45 - 19:52
   **   ~~~   ** The solution for one or more of the Air Loop HVAC systems did not appear to converge
   **   ~~~   ** Air System Named = CENTRAL SYSTEM did not converge for mass flow rate
   **   ~~~   ** Check values should be zero. Most Recent values listed first.
   **   ~~~   ** Demand-to-Supply interface mass flow rate check value iteration history trace: 4.956181E-002,4.956181E-002,4.956181E-002,4.956181E-002,4.956181E-002,4.956181E-002,4.956181E-002,4.956181E-002,4.956181E-002,4.956181E-002,
   **   ~~~   ** Supply-to-demand interface deck 1 mass flow rate check value iteration history trace: 4.956181E-002,4.956181E-002,4.956181E-002,4.956181E-002,4.956181E-002,4.956181E-002,4.956181E-002,4.956181E-002,4.956181E-002,4.956181E-002,
   **   ~~~   ** Air System Named = CENTRAL SYSTEM did not converge for energy
   **   ~~~   ** Check values should be zero. Most Recent values listed first.
   **   ~~~   ** Demand-to-Supply interface energy check value iteration history trace: 981.832106,981.832106,981.832106,981.832105,981.832105,981.832105,981.832105,981.832105,981.832105,981.832105,
   **   ~~~   ** Supply-to-demand interface deck 1 energy check value iteration history trace: 1668.972783,1668.972783,1668.972783,1668.972783,1668.972783,1668.972783,1668.972783,1668.972783,1668.972782,1668.972782,
   ** Warning ** SimHVAC: Maximum iterations (20) exceeded for all HVAC loops, at ANNUAL, 12/14 17:00 - 17:15
   **   ~~~   ** The solution for one or more of the Air Loop HVAC systems did not appear to converge
   **   ~~~   ** Air System Named = CENTRAL SYSTEM did not converge for mass flow rate
   **   ~~~   ** Check values should be zero. Most Recent values listed first.
   **   ~~~   ** Demand-to-Supply interface mass flow rate check value iteration history trace: 7.859181E-002,7.859181E-002,7.859181E-002,7.859181E-002,7.859181E-002,7.859181E-002,7.859181E-002,7.859181E-002,7.859181E-002,7.859181E-002,
   **   ~~~   ** Supply-to-demand interface deck 1 mass flow rate check value iteration history trace: 7.859181E-002,7.859181E-002,7.859181E-002,7.859181E-002,7.859181E-002,7.859181E-002,7.859181E-002,7.859181E-002,7.859181E-002,7.859181E-002,
   **   ~~~   ** Air System Named = CENTRAL SYSTEM did not converge for energy
   **   ~~~   ** Check values should be zero. Most Recent values listed first.
   **   ~~~   ** Demand-to-Supply interface energy check value iteration history trace: 1546.633003,1546.633003,1546.633003,1546.633003,1546.633003,1546.633003,1546.633002,1546.633002,1546.633002,1546.633002,
   **   ~~~   ** Supply-to-demand interface deck 1 energy check value iteration history trace: 2685.049380,2685.049380,2685.049380,2685.049379,2685.049379,2685.049379,2685.049379,2685.049379,2685.049379,2685.049379,
   ************* Simulation Error Summary *************
   ** Warning ** The following Report Variables were requested but not generated -- check.rdd file
   **   ~~~   ** Either the IDF did not contain these elements, the variable name is misspelled,
   **   ~~~   ** or the requested variable is an advanced output which requires Output : Diagnostics, DisplayAdvancedReportVariables;
   ************* Key=*, VarName=BASEBOARD TOTAL HEATING ENERGY, Frequency=
   ************* Key=*, VarName=WATER HEATER NATURALGAS ENERGY, Frequency=
   ************* Key=*, VarName=COOLING COIL TOTAL HEATING ENERGY, Frequency=
   ************* There are 34 unused schedules in input.
   ************* There are 388 unused week schedules in input.
   ************* There are 396 unused day schedules in input.
   ************* Use Output:Diagnostics,DisplayUnusedSchedules; to see them.
   *************
   ************* ===== Recurring Error Summary =====
   ************* The following recurring error messages occurred.
   *************
   *************  ** Warning ** "TOTAL HOT WATER LOAD" - Target water temperature should be less than or equal to the hot water temperature error continues...
   *************  **   ~~~   **   This error occurred 106775 total times;
   *************  **   ~~~   **   during Warmup 0 times;
   *************  **   ~~~   **   during Sizing 0 times.
   *************  **   ~~~   **   Max=9.774761  Min=3.570180E-006
   *************
   *************  ** Warning ** SimHVAC: Exceeding Maximum iterations for all HVAC loops, during ANNUAL continues
   *************  **   ~~~   **   This error occurred 1 total times;
   *************  **   ~~~   **   during Warmup 0 times;
   *************  **   ~~~   **   during Sizing 0 times.
   *************
   *************
   ************* ===== Final Error Summary =====
   ************* The following error categories occurred.  Consider correcting or noting.
   ************* Nominally Unused Constructions
   ************* ..The nominally unused constructions warning is provided to alert you to potential conditions that can cause
   ************* ..extra time during simulation. Each construction is calculated by the algorithm indicated in the HeatBalanceAlgorithm
   ************* ..object. You may remove the constructions indicated (when you use the DisplayExtraWarnings option).
   *************
   ************* EnergyPlus Warmup Error Summary. During Warmup: 1 Warning; 0 Severe Errors.
   ************* EnergyPlus Sizing Error Summary. During Sizing: 4 Warning; 0 Severe Errors.
   ************* EnergyPlus Completed Successfully-- 106808 Warning; 0 Severe Errors; Elapsed Time=00hr 05min 18.03sec
