Program Version,EnergyPlus, Version 22.2.0-c249759bad, YMD=2023.09.01 19:47,
   ************* Beginning Zone Sizing Calculations
   ** Warning ** ProcessScheduleInput: Schedule:Constant="ALWAYS ON DISCRETE", Schedule Type Limits Name="ONOFF" not found -- will not be validated
   ** Warning ** Foundation:Kiva="KIVA FOUNDATION", no Interior Horizontal Insulation Material Name defined
   **   ~~~   ** Interior Horizontal Insulation Depth will not be used.
   ** Warning ** CheckUsedConstructions: There are 15 nominally unused constructions in input.
   **   ~~~   ** Each Unused construction is shown.
   ************* Construction=INTERIOR FLOOR
   ************* Construction=INTERIOR WINDOW
   ************* Construction=EXTERIOR DOOR
   ************* Construction=INTERIOR DOOR
   ************* Construction=GABLE CONSTRUCTION
   ************* Construction=CRAWL_FLOOR
   ************* Construction=INSULATED PIPE
   ************* Construction=PLAIN PIPE
   ************* Construction=TDD PIPE
   ************* Construction=TDD DOME
   ************* Construction=TDD DIFFUSER
   ************* Construction=CRAWL WALL
   ************* Construction=CEILING-FLOOR-LAYER
   ************* Construction=SLAB CONSTRUCTION W FULL R10 INSULATION
   ************* Construction=SLAB CONSTRUCTION W FULL R5 INSULATION
   ** Warning ** GetDXCoils: Coil:Heating:DX:SingleSpeed="DX_HEATING_COIL" curve values
   **   ~~~   ** ... Defrost Energy Input Ratio Function of Temperature Curve Name = DEFROSTEIR output is not equal to 1.0 (+ or - 10%) at rated conditions.
   **   ~~~   ** ... Curve output at rated conditions = 0.152
   ************* Beginning System Sizing Calculations
   ************* Beginning Plant Sizing Calculations
   ** Warning ** Coil:WaterHeating:AirToWaterHeatPump:Wrapped "HEAT PUMP WATER HEATER EVAPORATOR": Rated air volume flow rate per watt of rated total water heating capacity is out of range
   **   ~~~   ** Min Rated Vol Flow Per Watt=[4.027E-005], Rated Vol Flow Per Watt=[1.510E-004], Max Rated Vol Flow Per Watt=[8.056E-005]. See Input-Output Reference Manual for valid range.
   ************* SizeFan: : Potential issue with equipment sizing for Fan:OnOff HEAT PUMP WATER HEATER FAN
   **   ~~~   ** User-Specified Maximum Flow Rate [m3/s] = 0.22653
   **   ~~~   ** differs from Design Size Maximum Flow Rate [m3/s] = 7.55250E-002
   **   ~~~   ** This may, or may not, indicate mismatched component sizes.
   **   ~~~   ** Verify that the value entered is intended and is consistent with other components.
   ** Warning ** Water heater = WATER HEATER TANK:  Recovery Efficiency and Energy Factor could not be calculated during the test for standard ratings
   **   ~~~   ** Setpoint was never recovered and/or heater never turned on
   ** Warning ** Check input. Pump nominal power or motor efficiency is set to 0, for pump=MAINS PRESSURE
   ** Warning ** Output:Meter: invalid Key Name="ELECTRIC_RANGE:INTERIOREQUIPMENT:ELECTRICITY" - not found.
   ** Warning ** Output:Meter: invalid Key Name="ELECTRIC_DRYER:INTERIOREQUIPMENT:ELECTRICITY" - not found.
   ** Warning ** Output:Meter: invalid Key Name="HEATRECOVERY:ELECTRICITY" - not found.
   ** Warning ** Output:Meter: invalid Key Name="HEATING:NATURALGAS" - not found.
   ** Warning ** Output:Meter: invalid Key Name="WATERSYSTEMS:NATURALGAS" - not found.
   ** Warning ** Output:Meter: invalid Key Name="PROPANE:FACILITY" - not found.
   ** Warning ** Output:Meter: invalid Key Name="HEATING:PROPANE" - not found.
   ************* Testing Individual Branch Integrity
   ************* All Branches passed integrity testing
   ************* Testing Individual Supply Air Path Integrity
   ************* All Supply Air Paths passed integrity testing
   ************* Testing Individual Return Air Path Integrity
   ************* All Return Air Paths passed integrity testing
   ************* No node connection errors were found.
   ************* Beginning Simulation
   ** Warning ** AirflowNetwork::Solver::validate_distribution: Heat pump water heater is simulated along with an AirflowNetwork but is not included in the AirflowNetwork.
   ** Warning ** CalcEquipmentFlowRates: "TOTAL HOT WATER LOAD" - Target water temperature is greater than the hot water temperature by (3.52 C)
   **   ~~~   **  Environment=EXTREME_WINTER, at Simulation time=12/22 06:00 - 06:15
   **   ~~~   ** ...target water temperature     = 53.33 C
   **   ~~~   ** ...hot water temperature        = 49.82 C
   **   ~~~   ** ...Target water temperature should be less than or equal to the hot water temperature. Verify temperature setpoints and schedules.
   ** Warning ** SimHVAC: Maximum iterations (20) exceeded for all HVAC loops, at ANNUAL, 01/25 15:23 - 15:30
   **   ~~~   ** The solution for one or more of the Air Loop HVAC systems did not appear to converge
   **   ~~~   ** Air System Named = CENTRAL SYSTEM did not converge for mass flow rate
   **   ~~~   ** Check values should be zero. Most Recent values listed first.
   **   ~~~   ** Demand-to-Supply interface mass flow rate check value iteration history trace: 7.540176E-002,7.540176E-002,7.540176E-002,7.540176E-002,7.540176E-002,7.540176E-002,7.540176E-002,7.540176E-002,7.540176E-002,7.540176E-002,
   **   ~~~   ** Supply-to-demand interface deck 1 mass flow rate check value iteration history trace: 7.540176E-002,7.540176E-002,7.540176E-002,7.540176E-002,7.540176E-002,7.540176E-002,7.540176E-002,7.540176E-002,7.540176E-002,7.540176E-002,
   **   ~~~   ** Air System Named = CENTRAL SYSTEM did not converge for energy
   **   ~~~   ** Check values should be zero. Most Recent values listed first.
   **   ~~~   ** Demand-to-Supply interface energy check value iteration history trace: 1493.132197,1493.132197,1493.132197,1493.132197,1493.132197,1493.132197,1493.132197,1493.132196,1493.132196,1493.132196,
   **   ~~~   ** Supply-to-demand interface deck 1 energy check value iteration history trace: 2188.836224,2188.836223,2188.836223,2188.836223,2188.836223,2188.836223,2188.836223,2188.836222,2188.836222,2188.836222,
   ** Warning ** SimHVAC: Maximum iterations (20) exceeded for all HVAC loops, at ANNUAL, 02/06 16:45 - 16:50
   **   ~~~   ** The solution for one or more of the Air Loop HVAC systems did not appear to converge
   **   ~~~   ** Air System Named = CENTRAL SYSTEM did not converge for mass flow rate
   **   ~~~   ** Check values should be zero. Most Recent values listed first.
   **   ~~~   ** Demand-to-Supply interface mass flow rate check value iteration history trace: 9.558357E-002,9.558357E-002,9.558357E-002,9.558357E-002,9.558357E-002,9.558357E-002,9.558357E-002,9.558357E-002,9.558357E-002,9.558357E-002,
   **   ~~~   ** Supply-to-demand interface deck 1 mass flow rate check value iteration history trace: 9.558357E-002,9.558357E-002,9.558357E-002,9.558357E-002,9.558357E-002,9.558357E-002,9.558357E-002,9.558357E-002,9.558357E-002,9.558357E-002,
   **   ~~~   ** Air System Named = CENTRAL SYSTEM did not converge for energy
   **   ~~~   ** Check values should be zero. Most Recent values listed first.
   **   ~~~   ** Demand-to-Supply interface energy check value iteration history trace: 1904.806385,1904.806385,1904.806385,1904.806385,1904.806385,1904.806385,1904.806384,1904.806384,1904.806384,1904.806384,
   **   ~~~   ** Supply-to-demand interface deck 1 energy check value iteration history trace: 2918.515978,2918.515978,2918.515977,2918.515977,2918.515977,2918.515977,2918.515977,2918.515976,2918.515976,2918.515976,
   ** Warning ** SimHVAC: Maximum iterations (20) exceeded for all HVAC loops, at ANNUAL, 02/18 11:45 - 12:00
   **   ~~~   ** The solution for one or more of the Air Loop HVAC systems did not appear to converge
   **   ~~~   ** Air System Named = CENTRAL SYSTEM did not converge for mass flow rate
   **   ~~~   ** Check values should be zero. Most Recent values listed first.
   **   ~~~   ** Demand-to-Supply interface mass flow rate check value iteration history trace: 6.357259E-002,6.357259E-002,6.357259E-002,6.357259E-002,6.357259E-002,6.357259E-002,6.357259E-002,6.357259E-002,6.357259E-002,6.357259E-002,
   **   ~~~   ** Supply-to-demand interface deck 1 mass flow rate check value iteration history trace: 6.357259E-002,6.357259E-002,6.357259E-002,6.357259E-002,6.357259E-002,6.357259E-002,6.357259E-002,6.357259E-002,6.357259E-002,6.357259E-002,
   **   ~~~   ** Air System Named = CENTRAL SYSTEM did not converge for energy
   **   ~~~   ** Check values should be zero. Most Recent values listed first.
   **   ~~~   ** Demand-to-Supply interface energy check value iteration history trace: 1260.097798,1260.097797,1260.097797,1260.097797,1260.097797,1260.097797,1260.097797,1260.097797,1260.097797,1260.097797,
   **   ~~~   ** Supply-to-demand interface deck 1 energy check value iteration history trace: 2138.265003,2138.265003,2138.265003,2138.265003,2138.265003,2138.265003,2138.265003,2138.265002,2138.265002,2138.265002,
   ** Warning ** SimHVAC: Maximum iterations (20) exceeded for all HVAC loops, at ANNUAL, 03/01 17:10 - 17:15
   **   ~~~   ** The solution for one or more of the Air Loop HVAC systems did not appear to converge
   **   ~~~   ** Air System Named = CENTRAL SYSTEM did not converge for mass flow rate
   **   ~~~   ** Check values should be zero. Most Recent values listed first.
   **   ~~~   ** Demand-to-Supply interface mass flow rate check value iteration history trace: 9.876140E-002,9.876140E-002,9.876140E-002,9.876140E-002,9.876140E-002,9.876140E-002,9.876140E-002,9.876140E-002,9.876140E-002,9.876140E-002,
   **   ~~~   ** Supply-to-demand interface deck 1 mass flow rate check value iteration history trace: 9.876140E-002,9.876140E-002,9.876140E-002,9.876140E-002,9.876140E-002,9.876140E-002,9.876140E-002,9.876140E-002,9.876140E-002,9.876140E-002,
   **   ~~~   ** Air System Named = CENTRAL SYSTEM did not converge for energy
   **   ~~~   ** Check values should be zero. Most Recent values listed first.
   **   ~~~   ** Demand-to-Supply interface energy check value iteration history trace: 1950.919381,1950.919380,1950.919380,1950.919380,1950.919380,1950.919380,1950.919380,1950.919380,1950.919380,1950.919379,
   **   ~~~   ** Supply-to-demand interface deck 1 energy check value iteration history trace: 2962.528673,2962.528673,2962.528673,2962.528673,2962.528673,2962.528672,2962.528672,2962.528672,2962.528672,2962.528672,
   ** Warning ** SimHVAC: Maximum iterations (20) exceeded for all HVAC loops, at ANNUAL, 03/01 17:30 - 17:45
   **   ~~~   ** The solution for one or more of the Air Loop HVAC systems did not appear to converge
   **   ~~~   ** Air System Named = CENTRAL SYSTEM did not converge for mass flow rate
   **   ~~~   ** Check values should be zero. Most Recent values listed first.
   **   ~~~   ** Demand-to-Supply interface mass flow rate check value iteration history trace: 0.102023,0.102023,0.102023,0.102023,0.102023,0.102023,0.102023,0.102023,0.102023,0.102023,
   **   ~~~   ** Supply-to-demand interface deck 1 mass flow rate check value iteration history trace: 0.102023,0.102023,0.102023,0.102023,0.102023,0.102023,0.102023,0.102023,0.102023,0.102023,
   **   ~~~   ** Air System Named = CENTRAL SYSTEM did not converge for energy
   **   ~~~   ** Check values should be zero. Most Recent values listed first.
   **   ~~~   ** Demand-to-Supply interface energy check value iteration history trace: 2012.582905,2012.582905,2012.582905,2012.582905,2012.582905,2012.582904,2012.582904,2012.582904,2012.582904,2012.582904,
   **   ~~~   ** Supply-to-demand interface deck 1 energy check value iteration history trace: 2982.420147,2982.420146,2982.420146,2982.420146,2982.420146,2982.420146,2982.420145,2982.420145,2982.420145,2982.420145,
   ** Warning ** SimHVAC: Maximum iterations (20) exceeded for all HVAC loops, at ANNUAL, 03/08 19:19 - 19:22
   **   ~~~   ** The solution for one or more of the Air Loop HVAC systems did not appear to converge
   **   ~~~   ** Air System Named = CENTRAL SYSTEM did not converge for mass flow rate
   **   ~~~   ** Check values should be zero. Most Recent values listed first.
   **   ~~~   ** Demand-to-Supply interface mass flow rate check value iteration history trace: 7.380263E-002,7.380263E-002,7.380263E-002,7.380263E-002,7.380263E-002,7.380263E-002,7.380263E-002,7.380263E-002,7.380263E-002,7.380263E-002,
   **   ~~~   ** Supply-to-demand interface deck 1 mass flow rate check value iteration history trace: 7.380263E-002,7.380263E-002,7.380263E-002,7.380263E-002,7.380263E-002,7.380263E-002,7.380263E-002,7.380263E-002,7.380263E-002,7.380263E-002,
   **   ~~~   ** Air System Named = CENTRAL SYSTEM did not converge for energy
   **   ~~~   ** Check values should be zero. Most Recent values listed first.
   **   ~~~   ** Demand-to-Supply interface energy check value iteration history trace: 1459.083441,1459.083441,1459.083441,1459.083441,1459.083441,1459.083441,1459.083441,1459.083441,1459.083441,1459.083440,
   **   ~~~   ** Supply-to-demand interface deck 1 energy check value iteration history trace: 2219.553093,2219.553093,2219.553093,2219.553093,2219.553092,2219.553092,2219.553092,2219.553092,2219.553092,2219.553092,
   ** Warning ** SimHVAC: Maximum iterations (20) exceeded for all HVAC loops, at ANNUAL, 03/18 08:15 - 08:30
   **   ~~~   ** The solution for one or more of the Air Loop HVAC systems did not appear to converge
   **   ~~~   ** Air System Named = CENTRAL SYSTEM did not converge for mass flow rate
   **   ~~~   ** Check values should be zero. Most Recent values listed first.
   **   ~~~   ** Demand-to-Supply interface mass flow rate check value iteration history trace: 7.287801E-002,7.287801E-002,7.287801E-002,7.287801E-002,7.287801E-002,7.287801E-002,7.287801E-002,7.287801E-002,7.287801E-002,7.287801E-002,
   **   ~~~   ** Supply-to-demand interface deck 1 mass flow rate check value iteration history trace: 7.287801E-002,7.287801E-002,7.287801E-002,7.287801E-002,7.287801E-002,7.287801E-002,7.287801E-002,7.287801E-002,7.287801E-002,7.287801E-002,
   **   ~~~   ** Air System Named = CENTRAL SYSTEM did not converge for energy
   **   ~~~   ** Check values should be zero. Most Recent values listed first.
   **   ~~~   ** Demand-to-Supply interface energy check value iteration history trace: 1444.245991,1444.245991,1444.245990,1444.245990,1444.245990,1444.245990,1444.245990,1444.245990,1444.245990,1444.245990,
   **   ~~~   ** Supply-to-demand interface deck 1 energy check value iteration history trace: 2520.149576,2520.149576,2520.149576,2520.149576,2520.149576,2520.149576,2520.149575,2520.149575,2520.149575,2520.149575,
   ** Warning ** SimHVAC: Maximum iterations (20) exceeded for all HVAC loops, at ANNUAL, 03/20 10:43 - 10:45
   **   ~~~   ** The solution for one or more of the Air Loop HVAC systems did not appear to converge
   **   ~~~   ** Air System Named = CENTRAL SYSTEM did not converge for mass flow rate
   **   ~~~   ** Check values should be zero. Most Recent values listed first.
   **   ~~~   ** Demand-to-Supply interface mass flow rate check value iteration history trace: 8.061139E-002,8.061139E-002,8.061139E-002,8.061139E-002,8.061139E-002,8.061139E-002,8.061139E-002,8.061139E-002,8.061139E-002,8.061139E-002,
   **   ~~~   ** Supply-to-demand interface deck 1 mass flow rate check value iteration history trace: 8.061139E-002,8.061139E-002,8.061139E-002,8.061139E-002,8.061139E-002,8.061139E-002,8.061139E-002,8.061139E-002,8.061139E-002,8.061139E-002,
   **   ~~~   ** Air System Named = CENTRAL SYSTEM did not converge for energy
   **   ~~~   ** Check values should be zero. Most Recent values listed first.
   **   ~~~   ** Demand-to-Supply interface energy check value iteration history trace: 1593.674452,1593.674452,1593.674452,1593.674452,1593.674452,1593.674452,1593.674451,1593.674451,1593.674451,1593.674451,
   **   ~~~   ** Supply-to-demand interface deck 1 energy check value iteration history trace: 2473.490287,2473.490287,2473.490287,2473.490287,2473.490287,2473.490286,2473.490286,2473.490286,2473.490286,2473.490286,
   ** Warning ** SimHVAC: Maximum iterations (20) exceeded for all HVAC loops, at ANNUAL, 03/25 16:26 - 16:30
   **   ~~~   ** The solution for one or more of the Air Loop HVAC systems did not appear to converge
   **   ~~~   ** Air System Named = CENTRAL SYSTEM did not converge for mass flow rate
   **   ~~~   ** Check values should be zero. Most Recent values listed first.
   **   ~~~   ** Demand-to-Supply interface mass flow rate check value iteration history trace: 8.460372E-002,8.460372E-002,8.460372E-002,8.460372E-002,8.460372E-002,8.460372E-002,8.460372E-002,8.460372E-002,8.460372E-002,8.460372E-002,
   **   ~~~   ** Supply-to-demand interface deck 1 mass flow rate check value iteration history trace: 8.460372E-002,8.460372E-002,8.460372E-002,8.460372E-002,8.460372E-002,8.460372E-002,8.460372E-002,8.460372E-002,8.460372E-002,8.460372E-002,
   **   ~~~   ** Air System Named = CENTRAL SYSTEM did not converge for energy
   **   ~~~   ** Check values should be zero. Most Recent values listed first.
   **   ~~~   ** Demand-to-Supply interface energy check value iteration history trace: 1673.076831,1673.076831,1673.076831,1673.076831,1673.076831,1673.076830,1673.076830,1673.076830,1673.076830,1673.076830,
   **   ~~~   ** Supply-to-demand interface deck 1 energy check value iteration history trace: 2595.567765,2595.567765,2595.567765,2595.567765,2595.567765,2595.567764,2595.567764,2595.567764,2595.567764,2595.567764,
   ** Warning ** SimHVAC: Maximum iterations (20) exceeded for all HVAC loops, at ANNUAL, 04/04 08:30 - 08:32
   **   ~~~   ** The solution for one or more of the Air Loop HVAC systems did not appear to converge
   **   ~~~   ** Air System Named = CENTRAL SYSTEM did not converge for mass flow rate
   **   ~~~   ** Check values should be zero. Most Recent values listed first.
   **   ~~~   ** Demand-to-Supply interface mass flow rate check value iteration history trace: 8.305989E-002,8.305989E-002,8.305989E-002,8.305989E-002,8.305989E-002,8.305989E-002,8.305989E-002,8.305989E-002,8.305989E-002,8.305989E-002,
   **   ~~~   ** Supply-to-demand interface deck 1 mass flow rate check value iteration history trace: 8.305989E-002,8.305989E-002,8.305989E-002,8.305989E-002,8.305989E-002,8.305989E-002,8.305989E-002,8.305989E-002,8.305989E-002,8.305989E-002,
   **   ~~~   ** Air System Named = CENTRAL SYSTEM did not converge for energy
   **   ~~~   ** Check values should be zero. Most Recent values listed first.
   **   ~~~   ** Demand-to-Supply interface energy check value iteration history trace: 1645.922004,1645.922004,1645.922004,1645.922004,1645.922004,1645.922004,1645.922004,1645.922004,1645.922004,1645.922003,
   **   ~~~   ** Supply-to-demand interface deck 1 energy check value iteration history trace: 2567.870451,2567.870451,2567.870451,2567.870451,2567.870450,2567.870450,2567.870450,2567.870450,2567.870450,2567.870450,
   ** Warning ** SimHVAC: Maximum iterations (20) exceeded for all HVAC loops, at ANNUAL, 04/16 11:00 - 11:08
   **   ~~~   ** The solution for one or more of the Air Loop HVAC systems did not appear to converge
   **   ~~~   ** Air System Named = CENTRAL SYSTEM did not converge for mass flow rate
   **   ~~~   ** Check values should be zero. Most Recent values listed first.
   **   ~~~   ** Demand-to-Supply interface mass flow rate check value iteration history trace: 7.488038E-002,7.488038E-002,7.488038E-002,7.488038E-002,7.488038E-002,7.488038E-002,7.488038E-002,7.488038E-002,7.488038E-002,7.488038E-002,
   **   ~~~   ** Supply-to-demand interface deck 1 mass flow rate check value iteration history trace: 7.488038E-002,7.488038E-002,7.488038E-002,7.488038E-002,7.488038E-002,7.488038E-002,7.488038E-002,7.488038E-002,7.488038E-002,7.488038E-002,
   **   ~~~   ** Air System Named = CENTRAL SYSTEM did not converge for energy
   **   ~~~   ** Check values should be zero. Most Recent values listed first.
   **   ~~~   ** Demand-to-Supply interface energy check value iteration history trace: 1483.789765,1483.789765,1483.789765,1483.789765,1483.789765,1483.789765,1483.789765,1483.789765,1483.789765,1483.789765,
   **   ~~~   ** Supply-to-demand interface deck 1 energy check value iteration history trace: 2543.003931,2543.003931,2543.003931,2543.003931,2543.003931,2543.003931,2543.003931,2543.003931,2543.003931,2543.003931,
   **   ~~~   ** Node named ZONE INLET NODE shows oscillating temperatures across iterations with a repeated value of 33.797174
   **   ~~~   ** Node named ZONE INLET NODE temperature [C] iteration history trace (most recent first): 33.797174,33.797173,33.797173,33.797173,33.797173,33.797172,33.797172,33.797172,33.797172,33.797171,
   ** Warning ** SimHVAC: Maximum iterations (20) exceeded for all HVAC loops, at ANNUAL, 04/19 08:55 - 09:00
   **   ~~~   ** The solution for one or more of the Air Loop HVAC systems did not appear to converge
   **   ~~~   ** Air System Named = CENTRAL SYSTEM did not converge for mass flow rate
   **   ~~~   ** Check values should be zero. Most Recent values listed first.
   **   ~~~   ** Demand-to-Supply interface mass flow rate check value iteration history trace: 6.194561E-002,6.194561E-002,6.194561E-002,6.194561E-002,6.194561E-002,6.194561E-002,6.194561E-002,6.194561E-002,6.194561E-002,6.194561E-002,
   **   ~~~   ** Supply-to-demand interface deck 1 mass flow rate check value iteration history trace: 6.194561E-002,6.194561E-002,6.194561E-002,6.194561E-002,6.194561E-002,6.194561E-002,6.194561E-002,6.194561E-002,6.194561E-002,6.194561E-002,
   **   ~~~   ** Air System Named = CENTRAL SYSTEM did not converge for energy
   **   ~~~   ** Check values should be zero. Most Recent values listed first.
   **   ~~~   ** Demand-to-Supply interface energy check value iteration history trace: 1227.559424,1227.559424,1227.559424,1227.559424,1227.559424,1227.559424,1227.559424,1227.559424,1227.559424,1227.559424,
   **   ~~~   ** Supply-to-demand interface deck 1 energy check value iteration history trace: 2140.863438,2140.863438,2140.863438,2140.863437,2140.863437,2140.863437,2140.863437,2140.863437,2140.863437,2140.863437,
   ** Warning ** SimHVAC: Maximum iterations (20) exceeded for all HVAC loops, at ANNUAL, 04/27 06:45 - 06:48
   **   ~~~   ** The solution for one or more of the Air Loop HVAC systems did not appear to converge
   **   ~~~   ** Air System Named = CENTRAL SYSTEM did not converge for mass flow rate
   **   ~~~   ** Check values should be zero. Most Recent values listed first.
   **   ~~~   ** Demand-to-Supply interface mass flow rate check value iteration history trace: 7.397996E-002,7.397996E-002,7.397996E-002,7.397996E-002,7.397996E-002,7.397996E-002,7.397996E-002,7.397996E-002,7.397996E-002,7.397996E-002,
   **   ~~~   ** Supply-to-demand interface deck 1 mass flow rate check value iteration history trace: 7.397996E-002,7.397996E-002,7.397996E-002,7.397996E-002,7.397996E-002,7.397996E-002,7.397996E-002,7.397996E-002,7.397996E-002,7.397996E-002,
   **   ~~~   ** Air System Named = CENTRAL SYSTEM did not converge for energy
   **   ~~~   ** Check values should be zero. Most Recent values listed first.
   **   ~~~   ** Demand-to-Supply interface energy check value iteration history trace: 1465.964670,1465.964670,1465.964670,1465.964670,1465.964670,1465.964670,1465.964670,1465.964670,1465.964670,1465.964670,
   **   ~~~   ** Supply-to-demand interface deck 1 energy check value iteration history trace: 2514.659764,2514.659764,2514.659764,2514.659764,2514.659764,2514.659764,2514.659764,2514.659764,2514.659764,2514.659763,
   ** Warning ** SimHVAC: Maximum iterations (20) exceeded for all HVAC loops, at ANNUAL, 04/28 07:21 - 07:22
   **   ~~~   ** The solution for one or more of the Air Loop HVAC systems did not appear to converge
   **   ~~~   ** Air System Named = CENTRAL SYSTEM did not converge for mass flow rate
   **   ~~~   ** Check values should be zero. Most Recent values listed first.
   **   ~~~   ** Demand-to-Supply interface mass flow rate check value iteration history trace: 6.805686E-002,6.805686E-002,6.805686E-002,6.805686E-002,6.805686E-002,6.805686E-002,6.805686E-002,6.805686E-002,6.805686E-002,6.805686E-002,
   **   ~~~   ** Supply-to-demand interface deck 1 mass flow rate check value iteration history trace: 6.805686E-002,6.805686E-002,6.805686E-002,6.805686E-002,6.805686E-002,6.805686E-002,6.805686E-002,6.805686E-002,6.805686E-002,6.805686E-002,
   **   ~~~   ** Air System Named = CENTRAL SYSTEM did not converge for energy
   **   ~~~   ** Check values should be zero. Most Recent values listed first.
   **   ~~~   ** Demand-to-Supply interface energy check value iteration history trace: 1346.743462,1346.743462,1346.743462,1346.743462,1346.743462,1346.743462,1346.743462,1346.743462,1346.743462,1346.743462,
   **   ~~~   ** Supply-to-demand interface deck 1 energy check value iteration history trace: 2299.523602,2299.523602,2299.523601,2299.523601,2299.523601,2299.523601,2299.523601,2299.523601,2299.523601,2299.523601,
   ************* Simulation Error Summary *************
   ** Warning ** The following Report Variables were requested but not generated -- check.rdd file
   **   ~~~   ** Either the IDF did not contain these elements, the variable name is misspelled,
   **   ~~~   ** or the requested variable is an advanced output which requires Output : Diagnostics, DisplayAdvancedReportVariables;
   ************* Key=*, VarName=BASEBOARD TOTAL HEATING ENERGY, Frequency=
   ************* Key=*, VarName=WATER HEATER NATURALGAS ENERGY, Frequency=
   ************* Key=*, VarName=COOLING COIL TOTAL HEATING ENERGY, Frequency=
   ************* There are 34 unused schedules in input.
   ************* There are 388 unused week schedules in input.
   ************* There are 396 unused day schedules in input.
   ************* Use Output:Diagnostics,DisplayUnusedSchedules; to see them.
   *************
   ************* ===== Recurring Error Summary =====
   ************* The following recurring error messages occurred.
   *************
   *************  ** Warning ** "TOTAL HOT WATER LOAD" - Target water temperature should be less than or equal to the hot water temperature error continues...
   *************  **   ~~~   **   This error occurred 121765 total times;
   *************  **   ~~~   **   during Warmup 0 times;
   *************  **   ~~~   **   during Sizing 0 times.
   *************  **   ~~~   **   Max=14.246484  Min=3.489405E-003
   *************
   *************  ** Warning ** SimHVAC: Exceeding Maximum iterations for all HVAC loops, during ANNUAL continues
   *************  **   ~~~   **   This error occurred 16 total times;
   *************  **   ~~~   **   during Warmup 0 times;
   *************  **   ~~~   **   during Sizing 0 times.
   *************
   *************
   ************* ===== Final Error Summary =====
   ************* The following error categories occurred.  Consider correcting or noting.
   ************* Nominally Unused Constructions
   ************* ..The nominally unused constructions warning is provided to alert you to potential conditions that can cause
   ************* ..extra time during simulation. Each construction is calculated by the algorithm indicated in the HeatBalanceAlgorithm
   ************* ..object. You may remove the constructions indicated (when you use the DisplayExtraWarnings option).
   *************
   ************* EnergyPlus Warmup Error Summary. During Warmup: 1 Warning; 0 Severe Errors.
   ************* EnergyPlus Sizing Error Summary. During Sizing: 4 Warning; 0 Severe Errors.
   ************* EnergyPlus Completed Successfully-- 121812 Warning; 0 Severe Errors; Elapsed Time=00hr 01min 29.04sec
