Program Version,EnergyPlus, Version 22.2.0-c249759bad, YMD=2023.09.01 19:20,
   ************* Beginning Zone Sizing Calculations
   ** Warning ** ProcessScheduleInput: Schedule:Constant="ALWAYS ON DISCRETE", Schedule Type Limits Name="ONOFF" not found -- will not be validated
   ** Warning ** Foundation:Kiva="KIVA FOUNDATION", no Interior Horizontal Insulation Material Name defined
   **   ~~~   ** Interior Horizontal Insulation Depth will not be used.
   ** Warning ** CheckUsedConstructions: There are 15 nominally unused constructions in input.
   **   ~~~   ** Each Unused construction is shown.
   ************* Construction=INTERIOR FLOOR
   ************* Construction=INTERIOR WINDOW
   ************* Construction=EXTERIOR DOOR
   ************* Construction=INTERIOR DOOR
   ************* Construction=GABLE CONSTRUCTION
   ************* Construction=CRAWL_FLOOR
   ************* Construction=INSULATED PIPE
   ************* Construction=PLAIN PIPE
   ************* Construction=TDD PIPE
   ************* Construction=TDD DOME
   ************* Construction=TDD DIFFUSER
   ************* Construction=CRAWL WALL
   ************* Construction=CEILING-FLOOR-LAYER
   ************* Construction=SLAB CONSTRUCTION W FULL R10 INSULATION
   ************* Construction=SLAB CONSTRUCTION W FULL R5 INSULATION
   ** Warning ** GetDXCoils: Coil:Heating:DX:SingleSpeed="DX_HEATING_COIL" curve values
   **   ~~~   ** ... Defrost Energy Input Ratio Function of Temperature Curve Name = DEFROSTEIR output is not equal to 1.0 (+ or - 10%) at rated conditions.
   **   ~~~   ** ... Curve output at rated conditions = 0.152
   ************* Beginning System Sizing Calculations
   ************* Beginning Plant Sizing Calculations
   ** Warning ** SizeDXCoil Coil:Cooling:DX:SingleSpeed DX_COOLING_COIL
   **   ~~~   ** ...Gross Rated Total Cooling Capacity [W] will be limited by the maximum rated volume flow per rated total capacity ratio.
   **   ~~~   ** ...DX coil volume flow rate ( m3/s ) = 0.376955
   **   ~~~   ** ...Requested capacity ( W ) = 5686.929
   **   ~~~   ** ...Requested flow/capacity ratio ( m3/s/W ) = 6.628E-005
   **   ~~~   ** ...Maximum flow/capacity ratio ( m3/s/W ) = 6.041E-005
   **   ~~~   ** ...Adjusted capacity ( W ) = 6239.959
   ** Warning ** Coil:WaterHeating:AirToWaterHeatPump:Wrapped "HEAT PUMP WATER HEATER EVAPORATOR": Rated air volume flow rate per watt of rated total water heating capacity is out of range
   **   ~~~   ** Min Rated Vol Flow Per Watt=[4.027E-005], Rated Vol Flow Per Watt=[1.510E-004], Max Rated Vol Flow Per Watt=[8.056E-005]. See Input-Output Reference Manual for valid range.
   ************* SizeFan: : Potential issue with equipment sizing for Fan:OnOff HEAT PUMP WATER HEATER FAN
   **   ~~~   ** User-Specified Maximum Flow Rate [m3/s] = 0.22653
   **   ~~~   ** differs from Design Size Maximum Flow Rate [m3/s] = 7.55250E-002
   **   ~~~   ** This may, or may not, indicate mismatched component sizes.
   **   ~~~   ** Verify that the value entered is intended and is consistent with other components.
   ** Warning ** Water heater = WATER HEATER TANK:  Recovery Efficiency and Energy Factor could not be calculated during the test for standard ratings
   **   ~~~   ** Setpoint was never recovered and/or heater never turned on
   ** Warning ** Check input. Pump nominal power or motor efficiency is set to 0, for pump=MAINS PRESSURE
   ** Warning ** Output:Meter: invalid Key Name="ELECTRIC_RANGE:INTERIOREQUIPMENT:ELECTRICITY" - not found.
   ** Warning ** Output:Meter: invalid Key Name="ELECTRIC_DRYER:INTERIOREQUIPMENT:ELECTRICITY" - not found.
   ** Warning ** Output:Meter: invalid Key Name="HEATRECOVERY:ELECTRICITY" - not found.
   ** Warning ** Output:Meter: invalid Key Name="HEATING:NATURALGAS" - not found.
   ** Warning ** Output:Meter: invalid Key Name="WATERSYSTEMS:NATURALGAS" - not found.
   ** Warning ** Output:Meter: invalid Key Name="PROPANE:FACILITY" - not found.
   ** Warning ** Output:Meter: invalid Key Name="HEATING:PROPANE" - not found.
   ************* Testing Individual Branch Integrity
   ************* All Branches passed integrity testing
   ************* Testing Individual Supply Air Path Integrity
   ************* All Supply Air Paths passed integrity testing
   ************* Testing Individual Return Air Path Integrity
   ************* All Return Air Paths passed integrity testing
   ************* No node connection errors were found.
   ************* Beginning Simulation
   ** Warning ** AirflowNetwork::Solver::validate_distribution: Heat pump water heater is simulated along with an AirflowNetwork but is not included in the AirflowNetwork.
   ** Severe  ** CheckWarmupConvergence: Loads Initialization, Zone="ATTIC" did not converge after 25 warmup days.
   **   ~~~   ** See Warmup Convergence Information in .eio file for details.
   **   ~~~   ** ...Environment(SizingPeriod)="EXTREME_WINTER"
   **   ~~~   ** ..Max Temp Comparison = 0.14 vs Temperature Convergence Tolerance=5.00E-002 - Fail Convergence
   **   ~~~   ** ..Min Temp Comparison = 2.78E-002 vs Temperature Convergence Tolerance=5.00E-002 - Pass Convergence
   **   ~~~   ** ..Max Heat Load Comparison = 0.0000 vs Loads Convergence Tolerance=5.00E-002 - Pass Convergence
   **   ~~~   ** ..Max Cool Load Comparison = 0.0000 vs Loads Convergence Tolerance=5.00E-002 - Pass Convergence
   ** Warning ** CalcEquipmentFlowRates: "TOTAL HOT WATER LOAD" - Target water temperature is greater than the hot water temperature by (2.22 C)
   **   ~~~   **  Environment=EXTREME_WINTER, at Simulation time=01/20 06:45 - 07:00
   **   ~~~   ** ...target water temperature     = 53.33 C
   **   ~~~   ** ...hot water temperature        = 51.11 C
   **   ~~~   ** ...Target water temperature should be less than or equal to the hot water temperature. Verify temperature setpoints and schedules.
   ** Warning ** SimHVAC: Maximum iterations (20) exceeded for all HVAC loops, at ANNUAL, 03/10 18:10 - 18:15
   **   ~~~   ** The solution for one or more of the Air Loop HVAC systems did not appear to converge
   **   ~~~   ** Air System Named = CENTRAL SYSTEM did not converge for mass flow rate
   **   ~~~   ** Check values should be zero. Most Recent values listed first.
   **   ~~~   ** Demand-to-Supply interface mass flow rate check value iteration history trace: 5.547252E-002,5.547252E-002,5.547252E-002,5.547252E-002,5.547252E-002,5.547252E-002,5.547252E-002,5.547252E-002,5.547252E-002,5.547252E-002,
   **   ~~~   ** Supply-to-demand interface deck 1 mass flow rate check value iteration history trace: 5.547252E-002,5.547252E-002,5.547252E-002,5.547252E-002,5.547252E-002,5.547252E-002,5.547252E-002,5.547252E-002,5.547252E-002,5.547252E-002,
   **   ~~~   ** Air System Named = CENTRAL SYSTEM did not converge for energy
   **   ~~~   ** Check values should be zero. Most Recent values listed first.
   **   ~~~   ** Demand-to-Supply interface energy check value iteration history trace: 1091.070744,1091.070744,1091.070744,1091.070744,1091.070743,1091.070743,1091.070743,1091.070743,1091.070743,1091.070743,
   **   ~~~   ** Supply-to-demand interface deck 1 energy check value iteration history trace: 1921.010905,1921.010905,1921.010905,1921.010905,1921.010905,1921.010905,1921.010905,1921.010905,1921.010904,1921.010904,
   ** Warning ** SimHVAC: Maximum iterations (20) exceeded for all HVAC loops, at ANNUAL, 03/18 18:15 - 18:18
   **   ~~~   ** The solution for one or more of the Air Loop HVAC systems did not appear to converge
   **   ~~~   ** Air System Named = CENTRAL SYSTEM did not converge for mass flow rate
   **   ~~~   ** Check values should be zero. Most Recent values listed first.
   **   ~~~   ** Demand-to-Supply interface mass flow rate check value iteration history trace: 9.163402E-002,9.163402E-002,9.163402E-002,9.163402E-002,9.163402E-002,9.163402E-002,9.163402E-002,9.163402E-002,9.163402E-002,9.163402E-002,
   **   ~~~   ** Supply-to-demand interface deck 1 mass flow rate check value iteration history trace: 9.163402E-002,9.163402E-002,9.163402E-002,9.163402E-002,9.163402E-002,9.163402E-002,9.163402E-002,9.163402E-002,9.163402E-002,9.163402E-002,
   **   ~~~   ** Air System Named = CENTRAL SYSTEM did not converge for energy
   **   ~~~   ** Check values should be zero. Most Recent values listed first.
   **   ~~~   ** Demand-to-Supply interface energy check value iteration history trace: 1851.101005,1851.101005,1851.101005,1851.101005,1851.101004,1851.101004,1851.101004,1851.101004,1851.101004,1851.101004,
   **   ~~~   ** Supply-to-demand interface deck 1 energy check value iteration history trace: 2737.189579,2737.189579,2737.189579,2737.189579,2737.189578,2737.189578,2737.189578,2737.189578,2737.189578,2737.189577,
   ** Warning ** SimHVAC: Maximum iterations (20) exceeded for all HVAC loops, at ANNUAL, 03/28 12:00 - 12:08
   **   ~~~   ** The solution for one or more of the Air Loop HVAC systems did not appear to converge
   **   ~~~   ** Air System Named = CENTRAL SYSTEM did not converge for mass flow rate
   **   ~~~   ** Check values should be zero. Most Recent values listed first.
   **   ~~~   ** Demand-to-Supply interface mass flow rate check value iteration history trace: 6.267136E-002,6.267136E-002,6.267136E-002,6.267136E-002,6.267136E-002,6.267136E-002,6.267136E-002,6.267136E-002,6.267136E-002,6.267136E-002,
   **   ~~~   ** Supply-to-demand interface deck 1 mass flow rate check value iteration history trace: 6.267136E-002,6.267136E-002,6.267136E-002,6.267136E-002,6.267136E-002,6.267136E-002,6.267136E-002,6.267136E-002,6.267136E-002,6.267136E-002,
   **   ~~~   ** Air System Named = CENTRAL SYSTEM did not converge for energy
   **   ~~~   ** Check values should be zero. Most Recent values listed first.
   **   ~~~   ** Demand-to-Supply interface energy check value iteration history trace: 1241.936247,1241.936247,1241.936247,1241.936247,1241.936247,1241.936247,1241.936247,1241.936247,1241.936247,1241.936247,
   **   ~~~   ** Supply-to-demand interface deck 1 energy check value iteration history trace: 2108.413967,2108.413967,2108.413967,2108.413967,2108.413966,2108.413966,2108.413966,2108.413966,2108.413966,2108.413966,
   ** Warning ** SimHVAC: Maximum iterations (20) exceeded for all HVAC loops, at ANNUAL, 04/09 09:45 - 10:00
   **   ~~~   ** The solution for one or more of the Air Loop HVAC systems did not appear to converge
   **   ~~~   ** Air System Named = CENTRAL SYSTEM did not converge for mass flow rate
   **   ~~~   ** Check values should be zero. Most Recent values listed first.
   **   ~~~   ** Demand-to-Supply interface mass flow rate check value iteration history trace: 6.488899E-002,6.488899E-002,6.488899E-002,6.488899E-002,6.488899E-002,6.488899E-002,6.488899E-002,6.488899E-002,6.488899E-002,6.488899E-002,
   **   ~~~   ** Supply-to-demand interface deck 1 mass flow rate check value iteration history trace: 6.488899E-002,6.488899E-002,6.488899E-002,6.488899E-002,6.488899E-002,6.488899E-002,6.488899E-002,6.488899E-002,6.488899E-002,6.488899E-002,
   **   ~~~   ** Air System Named = CENTRAL SYSTEM did not converge for energy
   **   ~~~   ** Check values should be zero. Most Recent values listed first.
   **   ~~~   ** Demand-to-Supply interface energy check value iteration history trace: 1285.881110,1285.881110,1285.881110,1285.881110,1285.881110,1285.881110,1285.881110,1285.881110,1285.881110,1285.881109,
   **   ~~~   ** Supply-to-demand interface deck 1 energy check value iteration history trace: 2183.239731,2183.239731,2183.239731,2183.239731,2183.239731,2183.239731,2183.239731,2183.239731,2183.239731,2183.239730,
   ** Warning ** SimHVAC: Maximum iterations (20) exceeded for all HVAC loops, at ANNUAL, 04/24 07:47 - 07:48
   **   ~~~   ** The solution for one or more of the Air Loop HVAC systems did not appear to converge
   **   ~~~   ** Air System Named = CENTRAL SYSTEM did not converge for mass flow rate
   **   ~~~   ** Check values should be zero. Most Recent values listed first.
   **   ~~~   ** Demand-to-Supply interface mass flow rate check value iteration history trace: 8.507229E-002,8.507229E-002,8.507229E-002,8.507229E-002,8.507229E-002,8.507229E-002,8.507229E-002,8.507229E-002,8.507229E-002,8.507229E-002,
   **   ~~~   ** Supply-to-demand interface deck 1 mass flow rate check value iteration history trace: 8.507229E-002,8.507229E-002,8.507229E-002,8.507229E-002,8.507229E-002,8.507229E-002,8.507229E-002,8.507229E-002,8.507229E-002,8.507229E-002,
   **   ~~~   ** Air System Named = CENTRAL SYSTEM did not converge for energy
   **   ~~~   ** Check values should be zero. Most Recent values listed first.
   **   ~~~   ** Demand-to-Supply interface energy check value iteration history trace: 1685.990208,1685.990208,1685.990208,1685.990208,1685.990208,1685.990208,1685.990208,1685.990208,1685.990208,1685.990207,
   **   ~~~   ** Supply-to-demand interface deck 1 energy check value iteration history trace: 2813.797178,2813.797178,2813.797178,2813.797178,2813.797178,2813.797177,2813.797177,2813.797177,2813.797177,2813.797177,
   ** Warning ** SimHVAC: Maximum iterations (20) exceeded for all HVAC loops, at ANNUAL, 04/24 08:15 - 08:17
   **   ~~~   ** The solution for one or more of the Air Loop HVAC systems did not appear to converge
   **   ~~~   ** Air System Named = CENTRAL SYSTEM did not converge for mass flow rate
   **   ~~~   ** Check values should be zero. Most Recent values listed first.
   **   ~~~   ** Demand-to-Supply interface mass flow rate check value iteration history trace: 7.757939E-002,7.757939E-002,7.757939E-002,7.757939E-002,7.757939E-002,7.757939E-002,7.757939E-002,7.757939E-002,7.757939E-002,7.757939E-002,
   **   ~~~   ** Supply-to-demand interface deck 1 mass flow rate check value iteration history trace: 7.757939E-002,7.757939E-002,7.757939E-002,7.757939E-002,7.757939E-002,7.757939E-002,7.757939E-002,7.757939E-002,7.757939E-002,7.757939E-002,
   **   ~~~   ** Air System Named = CENTRAL SYSTEM did not converge for energy
   **   ~~~   ** Check values should be zero. Most Recent values listed first.
   **   ~~~   ** Demand-to-Supply interface energy check value iteration history trace: 1534.704347,1534.704347,1534.704347,1534.704347,1534.704347,1534.704347,1534.704347,1534.704347,1534.704347,1534.704347,
   **   ~~~   ** Supply-to-demand interface deck 1 energy check value iteration history trace: 2628.329904,2628.329904,2628.329904,2628.329904,2628.329904,2628.329904,2628.329904,2628.329904,2628.329904,2628.329903,
   ** Warning ** SimHVAC: Maximum iterations (20) exceeded for all HVAC loops, at ANNUAL, 05/01 09:50 - 09:55
   **   ~~~   ** The solution for one or more of the Air Loop HVAC systems did not appear to converge
   **   ~~~   ** Air System Named = CENTRAL SYSTEM did not converge for mass flow rate
   **   ~~~   ** Check values should be zero. Most Recent values listed first.
   **   ~~~   ** Demand-to-Supply interface mass flow rate check value iteration history trace: 5.629160E-002,5.629160E-002,5.629160E-002,5.629160E-002,5.629160E-002,5.629160E-002,5.629160E-002,5.629160E-002,5.629160E-002,5.629160E-002,
   **   ~~~   ** Supply-to-demand interface deck 1 mass flow rate check value iteration history trace: 5.629160E-002,5.629160E-002,5.629160E-002,5.629160E-002,5.629160E-002,5.629160E-002,5.629160E-002,5.629160E-002,5.629160E-002,5.629160E-002,
   **   ~~~   ** Air System Named = CENTRAL SYSTEM did not converge for energy
   **   ~~~   ** Check values should be zero. Most Recent values listed first.
   **   ~~~   ** Demand-to-Supply interface energy check value iteration history trace: 1115.524036,1115.524036,1115.524036,1115.524036,1115.524036,1115.524035,1115.524035,1115.524035,1115.524035,1115.524035,
   **   ~~~   ** Supply-to-demand interface deck 1 energy check value iteration history trace: 1977.055768,1977.055768,1977.055768,1977.055768,1977.055768,1977.055767,1977.055767,1977.055767,1977.055767,1977.055767,
   ** Warning ** SimHVAC: Maximum iterations (20) exceeded for all HVAC loops, at ANNUAL, 05/03 10:00 - 10:04
   **   ~~~   ** The solution for one or more of the Air Loop HVAC systems did not appear to converge
   **   ~~~   ** Air System Named = CENTRAL SYSTEM did not converge for mass flow rate
   **   ~~~   ** Check values should be zero. Most Recent values listed first.
   **   ~~~   ** Demand-to-Supply interface mass flow rate check value iteration history trace: 6.069768E-002,6.069768E-002,6.069768E-002,6.069768E-002,6.069768E-002,6.069768E-002,6.069768E-002,6.069768E-002,6.069768E-002,6.069768E-002,
   **   ~~~   ** Supply-to-demand interface deck 1 mass flow rate check value iteration history trace: 6.069768E-002,6.069768E-002,6.069768E-002,6.069768E-002,6.069768E-002,6.069768E-002,6.069768E-002,6.069768E-002,6.069768E-002,6.069768E-002,
   **   ~~~   ** Air System Named = CENTRAL SYSTEM did not converge for energy
   **   ~~~   ** Check values should be zero. Most Recent values listed first.
   **   ~~~   ** Demand-to-Supply interface energy check value iteration history trace: 1197.978778,1197.978778,1197.978778,1197.978778,1197.978778,1197.978778,1197.978778,1197.978778,1197.978778,1197.978778,
   **   ~~~   ** Supply-to-demand interface deck 1 energy check value iteration history trace: 2151.734544,2151.734544,2151.734543,2151.734543,2151.734543,2151.734543,2151.734543,2151.734543,2151.734543,2151.734543,
   ** Warning ** SimHVAC: Maximum iterations (20) exceeded for all HVAC loops, at ANNUAL, 05/03 10:42 - 10:45
   **   ~~~   ** The solution for one or more of the Air Loop HVAC systems did not appear to converge
   **   ~~~   ** Air System Named = CENTRAL SYSTEM did not converge for mass flow rate
   **   ~~~   ** Check values should be zero. Most Recent values listed first.
   **   ~~~   ** Demand-to-Supply interface mass flow rate check value iteration history trace: 5.685864E-002,5.685864E-002,5.685864E-002,5.685864E-002,5.685864E-002,5.685864E-002,5.685864E-002,5.685864E-002,5.685864E-002,5.685864E-002,
   **   ~~~   ** Supply-to-demand interface deck 1 mass flow rate check value iteration history trace: 5.685864E-002,5.685864E-002,5.685864E-002,5.685864E-002,5.685864E-002,5.685864E-002,5.685864E-002,5.685864E-002,5.685864E-002,5.685864E-002,
   **   ~~~   ** Air System Named = CENTRAL SYSTEM did not converge for energy
   **   ~~~   ** Check values should be zero. Most Recent values listed first.
   **   ~~~   ** Demand-to-Supply interface energy check value iteration history trace: 1123.182563,1123.182563,1123.182563,1123.182563,1123.182563,1123.182563,1123.182562,1123.182562,1123.182562,1123.182562,
   **   ~~~   ** Supply-to-demand interface deck 1 energy check value iteration history trace: 2016.562840,2016.562840,2016.562839,2016.562839,2016.562839,2016.562839,2016.562839,2016.562839,2016.562839,2016.562839,
   ** Warning ** SimHVAC: Maximum iterations (20) exceeded for all HVAC loops, at ANNUAL, 05/09 06:45 - 07:00
   **   ~~~   ** The solution for one or more of the Air Loop HVAC systems did not appear to converge
   **   ~~~   ** Air System Named = CENTRAL SYSTEM did not converge for mass flow rate
   **   ~~~   ** Check values should be zero. Most Recent values listed first.
   **   ~~~   ** Demand-to-Supply interface mass flow rate check value iteration history trace: 6.049483E-002,6.049483E-002,6.049483E-002,6.049483E-002,6.049483E-002,6.049483E-002,6.049483E-002,6.049483E-002,6.049483E-002,6.049483E-002,
   **   ~~~   ** Supply-to-demand interface deck 1 mass flow rate check value iteration history trace: 6.049483E-002,6.049483E-002,6.049483E-002,6.049483E-002,6.049483E-002,6.049483E-002,6.049483E-002,6.049483E-002,6.049483E-002,6.049483E-002,
   **   ~~~   ** Air System Named = CENTRAL SYSTEM did not converge for energy
   **   ~~~   ** Check values should be zero. Most Recent values listed first.
   **   ~~~   ** Demand-to-Supply interface energy check value iteration history trace: 1188.322368,1188.322368,1188.322368,1188.322368,1188.322368,1188.322367,1188.322367,1188.322367,1188.322367,1188.322367,
   **   ~~~   ** Supply-to-demand interface deck 1 energy check value iteration history trace: 2126.312468,2126.312468,2126.312468,2126.312468,2126.312468,2126.312468,2126.312468,2126.312468,2126.312468,2126.312468,
   ** Warning ** SimHVAC: Maximum iterations (20) exceeded for all HVAC loops, at ANNUAL, 06/12 05:08 - 05:15
   **   ~~~   ** The solution for one or more of the Air Loop HVAC systems did not appear to converge
   **   ~~~   ** Air System Named = CENTRAL SYSTEM did not converge for mass flow rate
   **   ~~~   ** Check values should be zero. Most Recent values listed first.
   **   ~~~   ** Demand-to-Supply interface mass flow rate check value iteration history trace: 0.105886,0.105886,0.105886,0.105886,0.105886,0.105886,0.105886,0.105886,0.105886,0.105886,
   **   ~~~   ** Supply-to-demand interface deck 1 mass flow rate check value iteration history trace: 0.105886,0.105886,0.105886,0.105886,0.105886,0.105886,0.105886,0.105886,0.105886,0.105886,
   **   ~~~   ** Air System Named = CENTRAL SYSTEM did not converge for energy
   **   ~~~   ** Check values should be zero. Most Recent values listed first.
   **   ~~~   ** Demand-to-Supply interface energy check value iteration history trace: 2556.522827,2556.522827,2556.522827,2556.522827,2556.522828,2556.522828,2556.522828,2556.522828,2556.522828,2556.522828,
   **   ~~~   ** Supply-to-demand interface deck 1 energy check value iteration history trace: 1366.011369,1366.011369,1366.011369,1366.011369,1366.011369,1366.011369,1366.011369,1366.011369,1366.011369,1366.011369,
   ** Warning ** SimHVAC: Maximum iterations (20) exceeded for all HVAC loops, at ANNUAL, 09/13 04:15 - 04:20
   **   ~~~   ** The solution for one or more of the Air Loop HVAC systems did not appear to converge
   **   ~~~   ** Air System Named = CENTRAL SYSTEM did not converge for mass flow rate
   **   ~~~   ** Check values should be zero. Most Recent values listed first.
   **   ~~~   ** Demand-to-Supply interface mass flow rate check value iteration history trace: 8.330324E-002,8.330324E-002,8.330324E-002,8.330324E-002,8.330324E-002,8.330324E-002,8.330324E-002,8.330324E-002,8.330324E-002,8.330324E-002,
   **   ~~~   ** Supply-to-demand interface deck 1 mass flow rate check value iteration history trace: 8.330324E-002,8.330324E-002,8.330324E-002,8.330324E-002,8.330324E-002,8.330324E-002,8.330324E-002,8.330324E-002,8.330324E-002,8.330324E-002,
   **   ~~~   ** Air System Named = CENTRAL SYSTEM did not converge for energy
   **   ~~~   ** Check values should be zero. Most Recent values listed first.
   **   ~~~   ** Demand-to-Supply interface energy check value iteration history trace: 1561.902558,1561.902558,1561.902558,1561.902558,1561.902558,1561.902558,1561.902558,1561.902558,1561.902557,1561.902557,
   **   ~~~   ** Supply-to-demand interface deck 1 energy check value iteration history trace: 2377.271698,2377.271698,2377.271697,2377.271697,2377.271697,2377.271697,2377.271697,2377.271697,2377.271696,2377.271696,
   ** Warning ** SimHVAC: Maximum iterations (20) exceeded for all HVAC loops, at ANNUAL, 09/14 17:36 - 17:39
   **   ~~~   ** The solution for one or more of the Air Loop HVAC systems did not appear to converge
   **   ~~~   ** Air System Named = CENTRAL SYSTEM did not converge for mass flow rate
   **   ~~~   ** Check values should be zero. Most Recent values listed first.
   **   ~~~   ** Demand-to-Supply interface mass flow rate check value iteration history trace: 0.345161,0.345161,0.345161,0.345161,0.345161,0.345161,0.345161,0.345161,0.345161,0.345161,
   **   ~~~   ** Supply-to-demand interface deck 1 mass flow rate check value iteration history trace: 0.345161,0.345161,0.345161,0.345161,0.345161,0.345161,0.345161,0.345161,0.345161,0.345161,
   **   ~~~   ** Air System Named = CENTRAL SYSTEM did not converge for energy
   **   ~~~   ** Check values should be zero. Most Recent values listed first.
   **   ~~~   ** Demand-to-Supply interface energy check value iteration history trace: 8289.623162,8289.623163,8289.623163,8289.623164,8289.623165,8289.623165,8289.623166,8289.623166,8289.623167,8289.623167,
   **   ~~~   ** Supply-to-demand interface deck 1 energy check value iteration history trace: 3548.892662,3548.892662,3548.892663,3548.892663,3548.892663,3548.892663,3548.892664,3548.892664,3548.892664,3548.892664,
   ** Warning ** SimHVAC: Maximum iterations (20) exceeded for all HVAC loops, at ANNUAL, 09/19 20:00 - 20:15
   **   ~~~   ** The solution for one or more of the Air Loop HVAC systems did not appear to converge
   **   ~~~   ** Air System Named = CENTRAL SYSTEM did not converge for mass flow rate
   **   ~~~   ** Check values should be zero. Most Recent values listed first.
   **   ~~~   ** Demand-to-Supply interface mass flow rate check value iteration history trace: 3.198561E-002,3.198561E-002,3.198561E-002,3.198561E-002,3.198561E-002,3.198561E-002,3.198561E-002,3.198561E-002,3.198561E-002,3.198561E-002,
   **   ~~~   ** Supply-to-demand interface deck 1 mass flow rate check value iteration history trace: 3.198561E-002,3.198561E-002,3.198561E-002,3.198561E-002,3.198561E-002,3.198561E-002,3.198561E-002,3.198561E-002,3.198561E-002,3.198561E-002,
   **   ~~~   ** Air System Named = CENTRAL SYSTEM did not converge for energy
   **   ~~~   ** Check values should be zero. Most Recent values listed first.
   **   ~~~   ** Demand-to-Supply interface energy check value iteration history trace: 762.072156,762.072157,762.072157,762.072157,762.072157,762.072157,762.072157,762.072157,762.072157,762.072157,
   **   ~~~   ** Supply-to-demand interface deck 1 energy check value iteration history trace: 300.654540,300.654540,300.654540,300.654540,300.654540,300.654540,300.654540,300.654540,300.654540,300.654540,
   ************* Simulation Error Summary *************
   ** Warning ** The following Report Variables were requested but not generated -- check.rdd file
   **   ~~~   ** Either the IDF did not contain these elements, the variable name is misspelled,
   **   ~~~   ** or the requested variable is an advanced output which requires Output : Diagnostics, DisplayAdvancedReportVariables;
   ************* Key=*, VarName=BASEBOARD TOTAL HEATING ENERGY, Frequency=
   ************* Key=*, VarName=WATER HEATER NATURALGAS ENERGY, Frequency=
   ************* Key=*, VarName=COOLING COIL TOTAL HEATING ENERGY, Frequency=
   ************* There are 34 unused schedules in input.
   ************* There are 388 unused week schedules in input.
   ************* There are 397 unused day schedules in input.
   ************* Use Output:Diagnostics,DisplayUnusedSchedules; to see them.
   *************
   ************* ===== Recurring Error Summary =====
   ************* The following recurring error messages occurred.
   *************
   *************  ** Warning ** "TOTAL HOT WATER LOAD" - Target water temperature should be less than or equal to the hot water temperature error continues...
   *************  **   ~~~   **   This error occurred 90307 total times;
   *************  **   ~~~   **   during Warmup 0 times;
   *************  **   ~~~   **   during Sizing 0 times.
   *************  **   ~~~   **   Max=9.739437  Min=1.144946E-003
   *************
   *************  ** Warning ** SimHVAC: Exceeding Maximum iterations for all HVAC loops, during ANNUAL continues
   *************  **   ~~~   **   This error occurred 12 total times;
   *************  **   ~~~   **   during Warmup 0 times;
   *************  **   ~~~   **   during Sizing 0 times.
   *************
   *************
   ************* ===== Final Error Summary =====
   ************* The following error categories occurred.  Consider correcting or noting.
   ************* Loads Initialization did not Converge
   ************* ..1) very high thermal mass such as very thick concrete (solution: increase max number of warmup
   ************* ..   days in the BUILDING object);
   ************* ..2) moderate mass and inadequate space conditioning such that the building keeps getting warmer
   ************* ..   and warmer on successive days (solution: add HVAC, check building thermal properties,
   ************* ..   check if infiltration is included, make sure HVAC properly controlled);
   ************* ..3) a soil layer modeled below the concrete slab - (solution remove this layer and read about
   ************* ..   ground temperatures in the Auxiliary Programs document).
   ************* ..4) unreasonable (too small) limits in the BUILDING object for temperature (.4 default) or
   ************* ..   loads tolerances (.04 default)
   ************* Nominally Unused Constructions
   ************* ..The nominally unused constructions warning is provided to alert you to potential conditions that can cause
   ************* ..extra time during simulation. Each construction is calculated by the algorithm indicated in the HeatBalanceAlgorithm
   ************* ..object. You may remove the constructions indicated (when you use the DisplayExtraWarnings option).
   *************
   ************* EnergyPlus Warmup Error Summary. During Warmup: 1 Warning; 1 Severe Errors.
   ************* EnergyPlus Sizing Error Summary. During Sizing: 4 Warning; 0 Severe Errors.
   ************* EnergyPlus Completed Successfully-- 90351 Warning; 1 Severe Errors; Elapsed Time=00hr 01min 34.74sec
