Program Version,EnergyPlus, Version 22.2.0-c249759bad, YMD=2023.09.01 19:31,
   ************* Beginning Zone Sizing Calculations
   ** Warning ** ProcessScheduleInput: Schedule:Constant="ALWAYS ON DISCRETE", Schedule Type Limits Name="ONOFF" not found -- will not be validated
   ** Warning ** Foundation:Kiva="KIVA FOUNDATION", no Interior Horizontal Insulation Material Name defined
   **   ~~~   ** Interior Horizontal Insulation Depth will not be used.
   ** Warning ** CheckUsedConstructions: There are 15 nominally unused constructions in input.
   **   ~~~   ** Each Unused construction is shown.
   ************* Construction=INTERIOR FLOOR
   ************* Construction=INTERIOR WINDOW
   ************* Construction=EXTERIOR DOOR
   ************* Construction=INTERIOR DOOR
   ************* Construction=GABLE CONSTRUCTION
   ************* Construction=CRAWL_FLOOR
   ************* Construction=INSULATED PIPE
   ************* Construction=PLAIN PIPE
   ************* Construction=TDD PIPE
   ************* Construction=TDD DOME
   ************* Construction=TDD DIFFUSER
   ************* Construction=CRAWL WALL
   ************* Construction=CEILING-FLOOR-LAYER
   ************* Construction=SLAB CONSTRUCTION W FULL R10 INSULATION
   ************* Construction=SLAB CONSTRUCTION W FULL R5 INSULATION
   ** Warning ** GetDXCoils: Coil:Heating:DX:SingleSpeed="DX_HEATING_COIL" curve values
   **   ~~~   ** ... Defrost Energy Input Ratio Function of Temperature Curve Name = DEFROSTEIR output is not equal to 1.0 (+ or - 10%) at rated conditions.
   **   ~~~   ** ... Curve output at rated conditions = 0.152
   ************* Beginning System Sizing Calculations
   ************* Beginning Plant Sizing Calculations
   ** Warning ** SizeDXCoil Coil:Cooling:DX:SingleSpeed DX_COOLING_COIL
   **   ~~~   ** ...Gross Rated Total Cooling Capacity [W] will be limited by the maximum rated volume flow per rated total capacity ratio.
   **   ~~~   ** ...DX coil volume flow rate ( m3/s ) = 0.425188
   **   ~~~   ** ...Requested capacity ( W ) = 6785.179
   **   ~~~   ** ...Requested flow/capacity ratio ( m3/s/W ) = 6.266E-005
   **   ~~~   ** ...Maximum flow/capacity ratio ( m3/s/W ) = 6.041E-005
   **   ~~~   ** ...Adjusted capacity ( W ) = 7038.387
   ** Warning ** Coil:WaterHeating:AirToWaterHeatPump:Wrapped "HEAT PUMP WATER HEATER EVAPORATOR": Rated air volume flow rate per watt of rated total water heating capacity is out of range
   **   ~~~   ** Min Rated Vol Flow Per Watt=[4.027E-005], Rated Vol Flow Per Watt=[1.510E-004], Max Rated Vol Flow Per Watt=[8.056E-005]. See Input-Output Reference Manual for valid range.
   ************* SizeFan: : Potential issue with equipment sizing for Fan:OnOff HEAT PUMP WATER HEATER FAN
   **   ~~~   ** User-Specified Maximum Flow Rate [m3/s] = 0.22653
   **   ~~~   ** differs from Design Size Maximum Flow Rate [m3/s] = 7.55250E-002
   **   ~~~   ** This may, or may not, indicate mismatched component sizes.
   **   ~~~   ** Verify that the value entered is intended and is consistent with other components.
   ** Warning ** Water heater = WATER HEATER TANK:  Recovery Efficiency and Energy Factor could not be calculated during the test for standard ratings
   **   ~~~   ** Setpoint was never recovered and/or heater never turned on
   ** Warning ** Check input. Pump nominal power or motor efficiency is set to 0, for pump=MAINS PRESSURE
   ** Warning ** Output:Meter: invalid Key Name="ELECTRIC_RANGE:INTERIOREQUIPMENT:ELECTRICITY" - not found.
   ** Warning ** Output:Meter: invalid Key Name="ELECTRIC_DRYER:INTERIOREQUIPMENT:ELECTRICITY" - not found.
   ** Warning ** Output:Meter: invalid Key Name="HEATRECOVERY:ELECTRICITY" - not found.
   ** Warning ** Output:Meter: invalid Key Name="HEATING:NATURALGAS" - not found.
   ** Warning ** Output:Meter: invalid Key Name="WATERSYSTEMS:NATURALGAS" - not found.
   ** Warning ** Output:Meter: invalid Key Name="PROPANE:FACILITY" - not found.
   ** Warning ** Output:Meter: invalid Key Name="HEATING:PROPANE" - not found.
   ************* Testing Individual Branch Integrity
   ************* All Branches passed integrity testing
   ************* Testing Individual Supply Air Path Integrity
   ************* All Supply Air Paths passed integrity testing
   ************* Testing Individual Return Air Path Integrity
   ************* All Return Air Paths passed integrity testing
   ************* No node connection errors were found.
   ************* Beginning Simulation
   ** Warning ** AirflowNetwork::Solver::validate_distribution: Heat pump water heater is simulated along with an AirflowNetwork but is not included in the AirflowNetwork.
   ** Severe  ** CheckWarmupConvergence: Loads Initialization, Zone="ATTIC" did not converge after 25 warmup days.
   **   ~~~   ** See Warmup Convergence Information in .eio file for details.
   **   ~~~   ** ...Environment(SizingPeriod)="EXTREME_WINTER"
   **   ~~~   ** ..Max Temp Comparison = 0.12 vs Temperature Convergence Tolerance=5.00E-002 - Fail Convergence
   **   ~~~   ** ..Min Temp Comparison = 2.96E-002 vs Temperature Convergence Tolerance=5.00E-002 - Pass Convergence
   **   ~~~   ** ..Max Heat Load Comparison = 0.0000 vs Loads Convergence Tolerance=5.00E-002 - Pass Convergence
   **   ~~~   ** ..Max Cool Load Comparison = 0.0000 vs Loads Convergence Tolerance=5.00E-002 - Pass Convergence
   ** Warning ** CalcEquipmentFlowRates: "TOTAL HOT WATER LOAD" - Target water temperature is greater than the hot water temperature by (1.35 C)
   **   ~~~   **  Environment=EXTREME_WINTER, at Simulation time=12/15 06:00 - 06:15
   **   ~~~   ** ...target water temperature     = 53.33 C
   **   ~~~   ** ...hot water temperature        = 51.98 C
   **   ~~~   ** ...Target water temperature should be less than or equal to the hot water temperature. Verify temperature setpoints and schedules.
   ** Warning ** SimHVAC: Maximum iterations (20) exceeded for all HVAC loops, at ANNUAL, 01/14 10:45 - 11:00
   **   ~~~   ** The solution for one or more of the Air Loop HVAC systems did not appear to converge
   **   ~~~   ** Air System Named = CENTRAL SYSTEM did not converge for mass flow rate
   **   ~~~   ** Check values should be zero. Most Recent values listed first.
   **   ~~~   ** Demand-to-Supply interface mass flow rate check value iteration history trace: 8.886044E-002,8.886044E-002,8.886044E-002,8.886044E-002,8.886044E-002,8.886044E-002,8.886044E-002,8.886044E-002,8.886044E-002,8.886044E-002,
   **   ~~~   ** Supply-to-demand interface deck 1 mass flow rate check value iteration history trace: 8.886044E-002,8.886044E-002,8.886044E-002,8.886044E-002,8.886044E-002,8.886044E-002,8.886044E-002,8.886044E-002,8.886044E-002,8.886044E-002,
   **   ~~~   ** Air System Named = CENTRAL SYSTEM did not converge for energy
   **   ~~~   ** Check values should be zero. Most Recent values listed first.
   **   ~~~   ** Demand-to-Supply interface energy check value iteration history trace: 1760.844177,1760.844176,1760.844176,1760.844176,1760.844176,1760.844176,1760.844176,1760.844176,1760.844176,1760.844176,
   **   ~~~   ** Supply-to-demand interface deck 1 energy check value iteration history trace: 2765.285902,2765.285902,2765.285902,2765.285901,2765.285901,2765.285901,2765.285901,2765.285901,2765.285901,2765.285901,
   ** Warning ** SimHVAC: Maximum iterations (20) exceeded for all HVAC loops, at ANNUAL, 01/28 12:00 - 12:15
   **   ~~~   ** The solution for one or more of the Air Loop HVAC systems did not appear to converge
   **   ~~~   ** Air System Named = CENTRAL SYSTEM did not converge for mass flow rate
   **   ~~~   ** Check values should be zero. Most Recent values listed first.
   **   ~~~   ** Demand-to-Supply interface mass flow rate check value iteration history trace: 7.683187E-002,7.683187E-002,7.683187E-002,7.683187E-002,7.683187E-002,7.683187E-002,7.683187E-002,7.683187E-002,7.683187E-002,7.683187E-002,
   **   ~~~   ** Supply-to-demand interface deck 1 mass flow rate check value iteration history trace: 7.683187E-002,7.683187E-002,7.683187E-002,7.683187E-002,7.683187E-002,7.683187E-002,7.683187E-002,7.683187E-002,7.683187E-002,7.683187E-002,
   **   ~~~   ** Air System Named = CENTRAL SYSTEM did not converge for energy
   **   ~~~   ** Check values should be zero. Most Recent values listed first.
   **   ~~~   ** Demand-to-Supply interface energy check value iteration history trace: 1520.864989,1520.864989,1520.864989,1520.864989,1520.864989,1520.864989,1520.864989,1520.864988,1520.864988,1520.864988,
   **   ~~~   ** Supply-to-demand interface deck 1 energy check value iteration history trace: 2367.894750,2367.894749,2367.894749,2367.894749,2367.894749,2367.894749,2367.894749,2367.894748,2367.894748,2367.894748,
   ** Warning ** SimHVAC: Maximum iterations (20) exceeded for all HVAC loops, at ANNUAL, 02/11 19:00 - 19:15
   **   ~~~   ** The solution for one or more of the Air Loop HVAC systems did not appear to converge
   **   ~~~   ** Air System Named = CENTRAL SYSTEM did not converge for mass flow rate
   **   ~~~   ** Check values should be zero. Most Recent values listed first.
   **   ~~~   ** Demand-to-Supply interface mass flow rate check value iteration history trace: 9.844677E-002,9.844677E-002,9.844677E-002,9.844677E-002,9.844677E-002,9.844677E-002,9.844677E-002,9.844677E-002,9.844677E-002,9.844677E-002,
   **   ~~~   ** Supply-to-demand interface deck 1 mass flow rate check value iteration history trace: 9.844677E-002,9.844677E-002,9.844677E-002,9.844677E-002,9.844677E-002,9.844677E-002,9.844677E-002,9.844677E-002,9.844677E-002,9.844677E-002,
   **   ~~~   ** Air System Named = CENTRAL SYSTEM did not converge for energy
   **   ~~~   ** Check values should be zero. Most Recent values listed first.
   **   ~~~   ** Demand-to-Supply interface energy check value iteration history trace: 1939.325624,1939.325624,1939.325624,1939.325624,1939.325623,1939.325623,1939.325623,1939.325623,1939.325623,1939.325623,
   **   ~~~   ** Supply-to-demand interface deck 1 energy check value iteration history trace: 3016.661736,3016.661736,3016.661735,3016.661735,3016.661735,3016.661735,3016.661735,3016.661735,3016.661734,3016.661734,
   ** Warning ** SimHVAC: Maximum iterations (20) exceeded for all HVAC loops, at ANNUAL, 02/12 11:15 - 11:30
   **   ~~~   ** The solution for one or more of the Air Loop HVAC systems did not appear to converge
   **   ~~~   ** Air System Named = CENTRAL SYSTEM did not converge for mass flow rate
   **   ~~~   ** Check values should be zero. Most Recent values listed first.
   **   ~~~   ** Demand-to-Supply interface mass flow rate check value iteration history trace: 7.660691E-002,7.660691E-002,7.660691E-002,7.660691E-002,7.660691E-002,7.660691E-002,7.660691E-002,7.660691E-002,7.660691E-002,7.660691E-002,
   **   ~~~   ** Supply-to-demand interface deck 1 mass flow rate check value iteration history trace: 7.660691E-002,7.660691E-002,7.660691E-002,7.660691E-002,7.660691E-002,7.660691E-002,7.660691E-002,7.660691E-002,7.660691E-002,7.660691E-002,
   **   ~~~   ** Air System Named = CENTRAL SYSTEM did not converge for energy
   **   ~~~   ** Check values should be zero. Most Recent values listed first.
   **   ~~~   ** Demand-to-Supply interface energy check value iteration history trace: 1517.984380,1517.984380,1517.984380,1517.984380,1517.984380,1517.984380,1517.984380,1517.984380,1517.984380,1517.984380,
   **   ~~~   ** Supply-to-demand interface deck 1 energy check value iteration history trace: 2550.870873,2550.870873,2550.870873,2550.870873,2550.870873,2550.870873,2550.870873,2550.870872,2550.870872,2550.870872,
   ** Warning ** SimHVAC: Maximum iterations (20) exceeded for all HVAC loops, at ANNUAL, 02/12 21:15 - 21:22
   **   ~~~   ** The solution for one or more of the Air Loop HVAC systems did not appear to converge
   **   ~~~   ** Air System Named = CENTRAL SYSTEM did not converge for mass flow rate
   **   ~~~   ** Check values should be zero. Most Recent values listed first.
   **   ~~~   ** Demand-to-Supply interface mass flow rate check value iteration history trace: 9.381418E-002,9.381418E-002,9.381418E-002,9.381418E-002,9.381418E-002,9.381418E-002,9.381418E-002,9.381418E-002,9.381418E-002,9.381418E-002,
   **   ~~~   ** Supply-to-demand interface deck 1 mass flow rate check value iteration history trace: 9.381418E-002,9.381418E-002,9.381418E-002,9.381418E-002,9.381418E-002,9.381418E-002,9.381418E-002,9.381418E-002,9.381418E-002,9.381418E-002,
   **   ~~~   ** Air System Named = CENTRAL SYSTEM did not converge for energy
   **   ~~~   ** Check values should be zero. Most Recent values listed first.
   **   ~~~   ** Demand-to-Supply interface energy check value iteration history trace: 1848.729891,1848.729891,1848.729891,1848.729890,1848.729890,1848.729890,1848.729890,1848.729890,1848.729890,1848.729890,
   **   ~~~   ** Supply-to-demand interface deck 1 energy check value iteration history trace: 2856.295875,2856.295875,2856.295875,2856.295875,2856.295875,2856.295875,2856.295875,2856.295874,2856.295874,2856.295874,
   ** Warning ** SimHVAC: Maximum iterations (20) exceeded for all HVAC loops, at ANNUAL, 03/05 00:00 - 00:08
   **   ~~~   ** The solution for one or more of the Air Loop HVAC systems did not appear to converge
   **   ~~~   ** Air System Named = CENTRAL SYSTEM did not converge for mass flow rate
   **   ~~~   ** Check values should be zero. Most Recent values listed first.
   **   ~~~   ** Demand-to-Supply interface mass flow rate check value iteration history trace: 8.555005E-002,8.555005E-002,8.555005E-002,8.555005E-002,8.555005E-002,8.555005E-002,8.555005E-002,8.555005E-002,8.555005E-002,8.555005E-002,
   **   ~~~   ** Supply-to-demand interface deck 1 mass flow rate check value iteration history trace: 8.555005E-002,8.555005E-002,8.555005E-002,8.555005E-002,8.555005E-002,8.555005E-002,8.555005E-002,8.555005E-002,8.555005E-002,8.555005E-002,
   **   ~~~   ** Air System Named = CENTRAL SYSTEM did not converge for energy
   **   ~~~   ** Check values should be zero. Most Recent values listed first.
   **   ~~~   ** Demand-to-Supply interface energy check value iteration history trace: 1589.789983,1589.789983,1589.789982,1589.789982,1589.789982,1589.789982,1589.789982,1589.789982,1589.789982,1589.789982,
   **   ~~~   ** Supply-to-demand interface deck 1 energy check value iteration history trace: 2468.661842,2468.661841,2468.661841,2468.661841,2468.661841,2468.661841,2468.661841,2468.661841,2468.661840,2468.661840,
   ** Warning ** SimHVAC: Maximum iterations (20) exceeded for all HVAC loops, at ANNUAL, 03/07 04:45 - 05:00
   **   ~~~   ** The solution for one or more of the Air Loop HVAC systems did not appear to converge
   **   ~~~   ** Air System Named = CENTRAL SYSTEM did not converge for mass flow rate
   **   ~~~   ** Check values should be zero. Most Recent values listed first.
   **   ~~~   ** Demand-to-Supply interface mass flow rate check value iteration history trace: 5.333294E-002,5.333294E-002,5.333294E-002,5.333294E-002,5.333294E-002,5.333294E-002,5.333294E-002,5.333294E-002,5.333294E-002,5.333294E-002,
   **   ~~~   ** Supply-to-demand interface deck 1 mass flow rate check value iteration history trace: 5.333294E-002,5.333294E-002,5.333294E-002,5.333294E-002,5.333294E-002,5.333294E-002,5.333294E-002,5.333294E-002,5.333294E-002,5.333294E-002,
   **   ~~~   ** Air System Named = CENTRAL SYSTEM did not converge for energy
   **   ~~~   ** Check values should be zero. Most Recent values listed first.
   **   ~~~   ** Demand-to-Supply interface energy check value iteration history trace: 997.550719,997.550719,997.550719,997.550719,997.550719,997.550719,997.550719,997.550719,997.550719,997.550719,
   **   ~~~   ** Supply-to-demand interface deck 1 energy check value iteration history trace: 1731.962088,1731.962087,1731.962087,1731.962087,1731.962087,1731.962087,1731.962087,1731.962087,1731.962087,1731.962087,
   ** Warning ** SimHVAC: Maximum iterations (20) exceeded for all HVAC loops, at ANNUAL, 03/11 17:30 - 17:45
   **   ~~~   ** The solution for one or more of the Air Loop HVAC systems did not appear to converge
   **   ~~~   ** Air System Named = CENTRAL SYSTEM did not converge for mass flow rate
   **   ~~~   ** Check values should be zero. Most Recent values listed first.
   **   ~~~   ** Demand-to-Supply interface mass flow rate check value iteration history trace: 7.901437E-002,7.901437E-002,7.901437E-002,7.901437E-002,7.901437E-002,7.901437E-002,7.901437E-002,7.901437E-002,7.901437E-002,7.901437E-002,
   **   ~~~   ** Supply-to-demand interface deck 1 mass flow rate check value iteration history trace: 7.901437E-002,7.901437E-002,7.901437E-002,7.901437E-002,7.901437E-002,7.901437E-002,7.901437E-002,7.901437E-002,7.901437E-002,7.901437E-002,
   **   ~~~   ** Air System Named = CENTRAL SYSTEM did not converge for energy
   **   ~~~   ** Check values should be zero. Most Recent values listed first.
   **   ~~~   ** Demand-to-Supply interface energy check value iteration history trace: 1560.727064,1560.727064,1560.727064,1560.727064,1560.727064,1560.727064,1560.727063,1560.727063,1560.727063,1560.727063,
   **   ~~~   ** Supply-to-demand interface deck 1 energy check value iteration history trace: 2256.022959,2256.022958,2256.022958,2256.022958,2256.022958,2256.022958,2256.022957,2256.022957,2256.022957,2256.022957,
   ** Warning ** SimHVAC: Maximum iterations (20) exceeded for all HVAC loops, at ANNUAL, 03/14 00:15 - 00:30
   **   ~~~   ** The solution for one or more of the Air Loop HVAC systems did not appear to converge
   **   ~~~   ** Air System Named = CENTRAL SYSTEM did not converge for mass flow rate
   **   ~~~   ** Check values should be zero. Most Recent values listed first.
   **   ~~~   ** Demand-to-Supply interface mass flow rate check value iteration history trace: 9.694745E-002,9.694745E-002,9.694745E-002,9.694745E-002,9.694745E-002,9.694745E-002,9.694745E-002,9.694745E-002,9.694745E-002,9.694745E-002,
   **   ~~~   ** Supply-to-demand interface deck 1 mass flow rate check value iteration history trace: 9.694745E-002,9.694745E-002,9.694745E-002,9.694745E-002,9.694745E-002,9.694745E-002,9.694745E-002,9.694745E-002,9.694745E-002,9.694745E-002,
   **   ~~~   ** Air System Named = CENTRAL SYSTEM did not converge for energy
   **   ~~~   ** Check values should be zero. Most Recent values listed first.
   **   ~~~   ** Demand-to-Supply interface energy check value iteration history trace: 1835.742695,1835.742695,1835.742695,1835.742695,1835.742695,1835.742694,1835.742694,1835.742694,1835.742694,1835.742694,
   **   ~~~   ** Supply-to-demand interface deck 1 energy check value iteration history trace: 2736.759256,2736.759256,2736.759256,2736.759256,2736.759256,2736.759255,2736.759255,2736.759255,2736.759255,2736.759255,
   ** Warning ** SimHVAC: Maximum iterations (20) exceeded for all HVAC loops, at ANNUAL, 03/14 10:00 - 10:15
   **   ~~~   ** The solution for one or more of the Air Loop HVAC systems did not appear to converge
   **   ~~~   ** Air System Named = CENTRAL SYSTEM did not converge for mass flow rate
   **   ~~~   ** Check values should be zero. Most Recent values listed first.
   **   ~~~   ** Demand-to-Supply interface mass flow rate check value iteration history trace: 6.807409E-002,6.807409E-002,6.807409E-002,6.807409E-002,6.807409E-002,6.807409E-002,6.807409E-002,6.807409E-002,6.807409E-002,6.807409E-002,
   **   ~~~   ** Supply-to-demand interface deck 1 mass flow rate check value iteration history trace: 6.807409E-002,6.807409E-002,6.807409E-002,6.807409E-002,6.807409E-002,6.807409E-002,6.807409E-002,6.807409E-002,6.807409E-002,6.807409E-002,
   **   ~~~   ** Air System Named = CENTRAL SYSTEM did not converge for energy
   **   ~~~   ** Check values should be zero. Most Recent values listed first.
   **   ~~~   ** Demand-to-Supply interface energy check value iteration history trace: 1349.049162,1349.049162,1349.049162,1349.049162,1349.049162,1349.049162,1349.049162,1349.049162,1349.049162,1349.049162,
   **   ~~~   ** Supply-to-demand interface deck 1 energy check value iteration history trace: 2064.057423,2064.057423,2064.057422,2064.057422,2064.057422,2064.057422,2064.057422,2064.057422,2064.057422,2064.057422,
   ** Warning ** SimHVAC: Maximum iterations (20) exceeded for all HVAC loops, at ANNUAL, 04/30 21:45 - 22:00
   **   ~~~   ** The solution for one or more of the Air Loop HVAC systems did not appear to converge
   **   ~~~   ** Air System Named = CENTRAL SYSTEM did not converge for mass flow rate
   **   ~~~   ** Check values should be zero. Most Recent values listed first.
   **   ~~~   ** Demand-to-Supply interface mass flow rate check value iteration history trace: 6.679350E-002,6.679350E-002,6.679350E-002,6.679350E-002,6.679350E-002,6.679350E-002,6.679350E-002,6.679350E-002,6.679350E-002,6.679350E-002,
   **   ~~~   ** Supply-to-demand interface deck 1 mass flow rate check value iteration history trace: 6.679350E-002,6.679350E-002,6.679350E-002,6.679350E-002,6.679350E-002,6.679350E-002,6.679350E-002,6.679350E-002,6.679350E-002,6.679350E-002,
   **   ~~~   ** Air System Named = CENTRAL SYSTEM did not converge for energy
   **   ~~~   ** Check values should be zero. Most Recent values listed first.
   **   ~~~   ** Demand-to-Supply interface energy check value iteration history trace: 1321.073227,1321.073227,1321.073227,1321.073227,1321.073227,1321.073227,1321.073227,1321.073227,1321.073226,1321.073226,
   **   ~~~   ** Supply-to-demand interface deck 1 energy check value iteration history trace: 2246.904976,2246.904976,2246.904976,2246.904976,2246.904976,2246.904976,2246.904975,2246.904975,2246.904975,2246.904975,
   ** Warning ** SimHVAC: Maximum iterations (20) exceeded for all HVAC loops, at ANNUAL, 05/26 07:15 - 07:30
   **   ~~~   ** The solution for one or more of the Air Loop HVAC systems did not appear to converge
   **   ~~~   ** Air System Named = CENTRAL SYSTEM did not converge for mass flow rate
   **   ~~~   ** Check values should be zero. Most Recent values listed first.
   **   ~~~   ** Demand-to-Supply interface mass flow rate check value iteration history trace: 4.897248E-002,4.897248E-002,4.897248E-002,4.897248E-002,4.897248E-002,4.897248E-002,4.897248E-002,4.897248E-002,4.897248E-002,4.897248E-002,
   **   ~~~   ** Supply-to-demand interface deck 1 mass flow rate check value iteration history trace: 4.897248E-002,4.897248E-002,4.897248E-002,4.897248E-002,4.897248E-002,4.897248E-002,4.897248E-002,4.897248E-002,4.897248E-002,4.897248E-002,
   **   ~~~   ** Air System Named = CENTRAL SYSTEM did not converge for energy
   **   ~~~   ** Check values should be zero. Most Recent values listed first.
   **   ~~~   ** Demand-to-Supply interface energy check value iteration history trace: 1157.752545,1157.752546,1157.752546,1157.752546,1157.752547,1157.752547,1157.752548,1157.752548,1157.752548,1157.752549,
   **   ~~~   ** Supply-to-demand interface deck 1 energy check value iteration history trace: 619.334105,619.334106,619.334106,619.334106,619.334106,619.334106,619.334107,619.334107,619.334107,619.334107,
   ** Warning ** SimHVAC: Maximum iterations (20) exceeded for all HVAC loops, at ANNUAL, 05/27 01:23 - 01:30
   **   ~~~   ** The solution for one or more of the Air Loop HVAC systems did not appear to converge
   **   ~~~   ** Air System Named = CENTRAL SYSTEM did not converge for mass flow rate
   **   ~~~   ** Check values should be zero. Most Recent values listed first.
   **   ~~~   ** Demand-to-Supply interface mass flow rate check value iteration history trace: 0.123048,0.123048,0.123048,0.123048,0.123048,0.123048,0.123048,0.123048,0.123048,0.123048,
   **   ~~~   ** Supply-to-demand interface deck 1 mass flow rate check value iteration history trace: 0.123048,0.123048,0.123048,0.123048,0.123048,0.123048,0.123048,0.123048,0.123048,0.123048,
   **   ~~~   ** Air System Named = CENTRAL SYSTEM did not converge for energy
   **   ~~~   ** Check values should be zero. Most Recent values listed first.
   **   ~~~   ** Demand-to-Supply interface energy check value iteration history trace: 3040.879276,3040.879277,3040.879277,3040.879278,3040.879279,3040.879280,3040.879281,3040.879282,3040.879283,3040.879284,
   **   ~~~   ** Supply-to-demand interface deck 1 energy check value iteration history trace: 1552.472138,1552.472138,1552.472139,1552.472139,1552.472140,1552.472140,1552.472140,1552.472141,1552.472141,1552.472142,
   ** Warning ** SimHVAC: Maximum iterations (20) exceeded for all HVAC loops, at ANNUAL, 10/18 05:00 - 05:15
   **   ~~~   ** The solution for one or more of the Air Loop HVAC systems did not appear to converge
   **   ~~~   ** Air System Named = CENTRAL SYSTEM did not converge for mass flow rate
   **   ~~~   ** Check values should be zero. Most Recent values listed first.
   **   ~~~   ** Demand-to-Supply interface mass flow rate check value iteration history trace: 5.778411E-002,5.778411E-002,5.778411E-002,5.778411E-002,5.778411E-002,5.778411E-002,5.778411E-002,5.778411E-002,5.778411E-002,5.778411E-002,
   **   ~~~   ** Supply-to-demand interface deck 1 mass flow rate check value iteration history trace: 5.778411E-002,5.778411E-002,5.778411E-002,5.778411E-002,5.778411E-002,5.778411E-002,5.778411E-002,5.778411E-002,5.778411E-002,5.778411E-002,
   **   ~~~   ** Air System Named = CENTRAL SYSTEM did not converge for energy
   **   ~~~   ** Check values should be zero. Most Recent values listed first.
   **   ~~~   ** Demand-to-Supply interface energy check value iteration history trace: 1136.485133,1136.485133,1136.485133,1136.485133,1136.485132,1136.485132,1136.485132,1136.485132,1136.485132,1136.485132,
   **   ~~~   ** Supply-to-demand interface deck 1 energy check value iteration history trace: 1963.221574,1963.221574,1963.221574,1963.221574,1963.221573,1963.221573,1963.221573,1963.221573,1963.221573,1963.221573,
   ************* Simulation Error Summary *************
   ** Warning ** The following Report Variables were requested but not generated -- check.rdd file
   **   ~~~   ** Either the IDF did not contain these elements, the variable name is misspelled,
   **   ~~~   ** or the requested variable is an advanced output which requires Output : Diagnostics, DisplayAdvancedReportVariables;
   ************* Key=*, VarName=BASEBOARD TOTAL HEATING ENERGY, Frequency=
   ************* Key=*, VarName=WATER HEATER NATURALGAS ENERGY, Frequency=
   ************* Key=*, VarName=COOLING COIL TOTAL HEATING ENERGY, Frequency=
   ************* There are 34 unused schedules in input.
   ************* There are 388 unused week schedules in input.
   ************* There are 396 unused day schedules in input.
   ************* Use Output:Diagnostics,DisplayUnusedSchedules; to see them.
   *************
   ************* ===== Recurring Error Summary =====
   ************* The following recurring error messages occurred.
   *************
   *************  ** Warning ** "TOTAL HOT WATER LOAD" - Target water temperature should be less than or equal to the hot water temperature error continues...
   *************  **   ~~~   **   This error occurred 125217 total times;
   *************  **   ~~~   **   during Warmup 0 times;
   *************  **   ~~~   **   during Sizing 0 times.
   *************  **   ~~~   **   Max=10.232271  Min=3.540909E-003
   *************
   *************  ** Warning ** SimHVAC: Exceeding Maximum iterations for all HVAC loops, during ANNUAL continues
   *************  **   ~~~   **   This error occurred 7 total times;
   *************  **   ~~~   **   during Warmup 0 times;
   *************  **   ~~~   **   during Sizing 0 times.
   *************
   *************
   ************* ===== Final Error Summary =====
   ************* The following error categories occurred.  Consider correcting or noting.
   ************* Loads Initialization did not Converge
   ************* ..1) very high thermal mass such as very thick concrete (solution: increase max number of warmup
   ************* ..   days in the BUILDING object);
   ************* ..2) moderate mass and inadequate space conditioning such that the building keeps getting warmer
   ************* ..   and warmer on successive days (solution: add HVAC, check building thermal properties,
   ************* ..   check if infiltration is included, make sure HVAC properly controlled);
   ************* ..3) a soil layer modeled below the concrete slab - (solution remove this layer and read about
   ************* ..   ground temperatures in the Auxiliary Programs document).
   ************* ..4) unreasonable (too small) limits in the BUILDING object for temperature (.4 default) or
   ************* ..   loads tolerances (.04 default)
   ************* Nominally Unused Constructions
   ************* ..The nominally unused constructions warning is provided to alert you to potential conditions that can cause
   ************* ..extra time during simulation. Each construction is calculated by the algorithm indicated in the HeatBalanceAlgorithm
   ************* ..object. You may remove the constructions indicated (when you use the DisplayExtraWarnings option).
   *************
   ************* EnergyPlus Warmup Error Summary. During Warmup: 1 Warning; 1 Severe Errors.
   ************* EnergyPlus Sizing Error Summary. During Sizing: 4 Warning; 0 Severe Errors.
   ************* EnergyPlus Completed Successfully-- 125256 Warning; 1 Severe Errors; Elapsed Time=00hr 01min 39.96sec
