Program Version,EnergyPlus, Version 22.2.0-c249759bad, YMD=2023.09.01 19:52,
   ************* Beginning Zone Sizing Calculations
   ** Warning ** ProcessScheduleInput: Schedule:Constant="ALWAYS ON DISCRETE", Schedule Type Limits Name="ONOFF" not found -- will not be validated
   ** Warning ** Foundation:Kiva="KIVA FOUNDATION", no Interior Horizontal Insulation Material Name defined
   **   ~~~   ** Interior Horizontal Insulation Depth will not be used.
   ** Warning ** CheckUsedConstructions: There are 15 nominally unused constructions in input.
   **   ~~~   ** Each Unused construction is shown.
   ************* Construction=INTERIOR FLOOR
   ************* Construction=INTERIOR WINDOW
   ************* Construction=EXTERIOR DOOR
   ************* Construction=INTERIOR DOOR
   ************* Construction=GABLE CONSTRUCTION
   ************* Construction=CRAWL_FLOOR
   ************* Construction=INSULATED PIPE
   ************* Construction=PLAIN PIPE
   ************* Construction=TDD PIPE
   ************* Construction=TDD DOME
   ************* Construction=TDD DIFFUSER
   ************* Construction=CRAWL WALL
   ************* Construction=CEILING-FLOOR-LAYER
   ************* Construction=SLAB CONSTRUCTION W FULL R10 INSULATION
   ************* Construction=SLAB CONSTRUCTION W FULL R5 INSULATION
   ** Warning ** GetDXCoils: Coil:Heating:DX:SingleSpeed="DX_HEATING_COIL" curve values
   **   ~~~   ** ... Defrost Energy Input Ratio Function of Temperature Curve Name = DEFROSTEIR output is not equal to 1.0 (+ or - 10%) at rated conditions.
   **   ~~~   ** ... Curve output at rated conditions = 0.152
   ************* Beginning System Sizing Calculations
   ************* Beginning Plant Sizing Calculations
   ** Warning ** Coil:WaterHeating:AirToWaterHeatPump:Wrapped "HEAT PUMP WATER HEATER EVAPORATOR": Rated air volume flow rate per watt of rated total water heating capacity is out of range
   **   ~~~   ** Min Rated Vol Flow Per Watt=[4.027E-005], Rated Vol Flow Per Watt=[1.510E-004], Max Rated Vol Flow Per Watt=[8.056E-005]. See Input-Output Reference Manual for valid range.
   ************* SizeFan: : Potential issue with equipment sizing for Fan:OnOff HEAT PUMP WATER HEATER FAN
   **   ~~~   ** User-Specified Maximum Flow Rate [m3/s] = 0.22653
   **   ~~~   ** differs from Design Size Maximum Flow Rate [m3/s] = 7.55250E-002
   **   ~~~   ** This may, or may not, indicate mismatched component sizes.
   **   ~~~   ** Verify that the value entered is intended and is consistent with other components.
   ** Warning ** Water heater = WATER HEATER TANK:  Recovery Efficiency and Energy Factor could not be calculated during the test for standard ratings
   **   ~~~   ** Setpoint was never recovered and/or heater never turned on
   ** Warning ** Check input. Pump nominal power or motor efficiency is set to 0, for pump=MAINS PRESSURE
   ** Warning ** AirflowNetwork::Solver::validate_distribution: Heat pump water heater is simulated along with an AirflowNetwork but is not included in the AirflowNetwork.
   ** Warning ** Output:Meter: invalid Key Name="ELECTRIC_RANGE:INTERIOREQUIPMENT:ELECTRICITY" - not found.
   ** Warning ** Output:Meter: invalid Key Name="ELECTRIC_DRYER:INTERIOREQUIPMENT:ELECTRICITY" - not found.
   ** Warning ** Output:Meter: invalid Key Name="HEATRECOVERY:ELECTRICITY" - not found.
   ** Warning ** Output:Meter: invalid Key Name="HEATING:NATURALGAS" - not found.
   ** Warning ** Output:Meter: invalid Key Name="WATERSYSTEMS:NATURALGAS" - not found.
   ** Warning ** Output:Meter: invalid Key Name="PROPANE:FACILITY" - not found.
   ** Warning ** Output:Meter: invalid Key Name="HEATING:PROPANE" - not found.
   ************* Testing Individual Branch Integrity
   ************* All Branches passed integrity testing
   ************* Testing Individual Supply Air Path Integrity
   ************* All Supply Air Paths passed integrity testing
   ************* Testing Individual Return Air Path Integrity
   ************* All Return Air Paths passed integrity testing
   ************* No node connection errors were found.
   ************* Beginning Simulation
   ** Warning ** CalcEquipmentFlowRates: "TOTAL HOT WATER LOAD" - Target water temperature is greater than the hot water temperature by (5.46 C)
   **   ~~~   **  Environment=EXTREME_WINTER, at Simulation time=12/22 06:00 - 06:15
   **   ~~~   ** ...target water temperature     = 53.33 C
   **   ~~~   ** ...hot water temperature        = 47.87 C
   **   ~~~   ** ...Target water temperature should be less than or equal to the hot water temperature. Verify temperature setpoints and schedules.
   ** Warning ** SimHVAC: Maximum iterations (20) exceeded for all HVAC loops, at EXTREME_WINTER, 12/22 10:23 - 10:26
   **   ~~~   ** The solution for one or more of the Air Loop HVAC systems did not appear to converge
   **   ~~~   ** Air System Named = CENTRAL SYSTEM did not converge for mass flow rate
   **   ~~~   ** Check values should be zero. Most Recent values listed first.
   **   ~~~   ** Demand-to-Supply interface mass flow rate check value iteration history trace: 5.878911E-002,5.878911E-002,5.878911E-002,5.878911E-002,5.878911E-002,5.878911E-002,5.878911E-002,5.878911E-002,5.878911E-002,5.878911E-002,
   **   ~~~   ** Supply-to-demand interface deck 1 mass flow rate check value iteration history trace: 5.878911E-002,5.878911E-002,5.878911E-002,5.878911E-002,5.878911E-002,5.878911E-002,5.878911E-002,5.878911E-002,5.878911E-002,5.878911E-002,
   **   ~~~   ** Air System Named = CENTRAL SYSTEM did not converge for energy
   **   ~~~   ** Check values should be zero. Most Recent values listed first.
   **   ~~~   ** Demand-to-Supply interface energy check value iteration history trace: 1157.833644,1157.833644,1157.833644,1157.833644,1157.833644,1157.833644,1157.833644,1157.833644,1157.833644,1157.833644,
   **   ~~~   ** Supply-to-demand interface deck 1 energy check value iteration history trace: 2048.062262,2048.062262,2048.062262,2048.062262,2048.062262,2048.062262,2048.062262,2048.062262,2048.062262,2048.062262,
   ** Warning ** SimHVAC: Maximum iterations (20) exceeded for all HVAC loops, at EXTREME_WINTER, 12/26 10:45 - 10:47
   **   ~~~   ** The solution for one or more of the Air Loop HVAC systems did not appear to converge
   **   ~~~   ** Air System Named = CENTRAL SYSTEM did not converge for mass flow rate
   **   ~~~   ** Check values should be zero. Most Recent values listed first.
   **   ~~~   ** Demand-to-Supply interface mass flow rate check value iteration history trace: 7.513474E-002,7.513474E-002,7.513474E-002,7.513474E-002,7.513474E-002,7.513474E-002,7.513474E-002,7.513474E-002,7.513474E-002,7.513474E-002,
   **   ~~~   ** Supply-to-demand interface deck 1 mass flow rate check value iteration history trace: 7.513474E-002,7.513474E-002,7.513474E-002,7.513474E-002,7.513474E-002,7.513474E-002,7.513474E-002,7.513474E-002,7.513474E-002,7.513474E-002,
   **   ~~~   ** Air System Named = CENTRAL SYSTEM did not converge for energy
   **   ~~~   ** Check values should be zero. Most Recent values listed first.
   **   ~~~   ** Demand-to-Supply interface energy check value iteration history trace: 1488.920170,1488.920170,1488.920170,1488.920170,1488.920169,1488.920169,1488.920169,1488.920169,1488.920169,1488.920169,
   **   ~~~   ** Supply-to-demand interface deck 1 energy check value iteration history trace: 2285.058816,2285.058815,2285.058815,2285.058815,2285.058815,2285.058815,2285.058815,2285.058815,2285.058814,2285.058814,
   ** Warning ** SimHVAC: Maximum iterations (20) exceeded for all HVAC loops, at ANNUAL, 01/01 10:45 - 11:00
   **   ~~~   ** The solution for one or more of the Air Loop HVAC systems did not appear to converge
   **   ~~~   ** Air System Named = CENTRAL SYSTEM did not converge for mass flow rate
   **   ~~~   ** Check values should be zero. Most Recent values listed first.
   **   ~~~   ** Demand-to-Supply interface mass flow rate check value iteration history trace: 7.529531E-002,7.529531E-002,7.529531E-002,7.529531E-002,7.529531E-002,7.529531E-002,7.529531E-002,7.529531E-002,7.529531E-002,7.529531E-002,
   **   ~~~   ** Supply-to-demand interface deck 1 mass flow rate check value iteration history trace: 7.529531E-002,7.529531E-002,7.529531E-002,7.529531E-002,7.529531E-002,7.529531E-002,7.529531E-002,7.529531E-002,7.529531E-002,7.529531E-002,
   **   ~~~   ** Air System Named = CENTRAL SYSTEM did not converge for energy
   **   ~~~   ** Check values should be zero. Most Recent values listed first.
   **   ~~~   ** Demand-to-Supply interface energy check value iteration history trace: 1491.164602,1491.164602,1491.164602,1491.164602,1491.164602,1491.164602,1491.164602,1491.164602,1491.164602,1491.164602,
   **   ~~~   ** Supply-to-demand interface deck 1 energy check value iteration history trace: 2573.498049,2573.498049,2573.498049,2573.498049,2573.498048,2573.498048,2573.498048,2573.498048,2573.498048,2573.498048,
   ** Warning ** SimHVAC: Maximum iterations (20) exceeded for all HVAC loops, at ANNUAL, 01/15 08:15 - 08:30
   **   ~~~   ** The solution for one or more of the Air Loop HVAC systems did not appear to converge
   **   ~~~   ** Air System Named = CENTRAL SYSTEM did not converge for mass flow rate
   **   ~~~   ** Check values should be zero. Most Recent values listed first.
   **   ~~~   ** Demand-to-Supply interface mass flow rate check value iteration history trace: 6.287156E-002,6.287156E-002,6.287156E-002,6.287156E-002,6.287156E-002,6.287156E-002,6.287156E-002,6.287156E-002,6.287156E-002,6.287156E-002,
   **   ~~~   ** Supply-to-demand interface deck 1 mass flow rate check value iteration history trace: 6.287156E-002,6.287156E-002,6.287156E-002,6.287156E-002,6.287156E-002,6.287156E-002,6.287156E-002,6.287156E-002,6.287156E-002,6.287156E-002,
   **   ~~~   ** Air System Named = CENTRAL SYSTEM did not converge for energy
   **   ~~~   ** Check values should be zero. Most Recent values listed first.
   **   ~~~   ** Demand-to-Supply interface energy check value iteration history trace: 1245.796289,1245.796289,1245.796289,1245.796289,1245.796289,1245.796289,1245.796289,1245.796289,1245.796289,1245.796289,
   **   ~~~   ** Supply-to-demand interface deck 1 energy check value iteration history trace: 2190.440578,2190.440578,2190.440578,2190.440578,2190.440578,2190.440577,2190.440577,2190.440577,2190.440577,2190.440577,
   ** Warning ** SimHVAC: Maximum iterations (20) exceeded for all HVAC loops, at ANNUAL, 01/20 11:15 - 11:30
   **   ~~~   ** The solution for one or more of the Air Loop HVAC systems did not appear to converge
   **   ~~~   ** Air System Named = CENTRAL SYSTEM did not converge for mass flow rate
   **   ~~~   ** Check values should be zero. Most Recent values listed first.
   **   ~~~   ** Demand-to-Supply interface mass flow rate check value iteration history trace: 3.632185E-002,3.632185E-002,3.632185E-002,3.632185E-002,3.632185E-002,3.632185E-002,3.632185E-002,3.632185E-002,3.632185E-002,3.632185E-002,
   **   ~~~   ** Supply-to-demand interface deck 1 mass flow rate check value iteration history trace: 3.632185E-002,3.632185E-002,3.632185E-002,3.632185E-002,3.632185E-002,3.632185E-002,3.632185E-002,3.632185E-002,3.632185E-002,3.632185E-002,
   **   ~~~   ** Air System Named = CENTRAL SYSTEM did not converge for energy
   **   ~~~   ** Check values should be zero. Most Recent values listed first.
   **   ~~~   ** Demand-to-Supply interface energy check value iteration history trace: 716.381283,716.381283,716.381283,716.381283,716.381283,716.381283,716.381283,716.381283,716.381283,716.381283,
   **   ~~~   ** Supply-to-demand interface deck 1 energy check value iteration history trace: 1111.749274,1111.749274,1111.749274,1111.749274,1111.749274,1111.749274,1111.749274,1111.749274,1111.749274,1111.749274,
   ** Warning ** SimHVAC: Maximum iterations (20) exceeded for all HVAC loops, at ANNUAL, 02/12 13:45 - 14:00
   **   ~~~   ** The solution for one or more of the Air Loop HVAC systems did not appear to converge
   **   ~~~   ** Air System Named = CENTRAL SYSTEM did not converge for mass flow rate
   **   ~~~   ** Check values should be zero. Most Recent values listed first.
   **   ~~~   ** Demand-to-Supply interface mass flow rate check value iteration history trace: 6.037414E-002,6.037414E-002,6.037414E-002,6.037414E-002,6.037414E-002,6.037414E-002,6.037414E-002,6.037414E-002,6.037414E-002,6.037414E-002,
   **   ~~~   ** Supply-to-demand interface deck 1 mass flow rate check value iteration history trace: 6.037414E-002,6.037414E-002,6.037414E-002,6.037414E-002,6.037414E-002,6.037414E-002,6.037414E-002,6.037414E-002,6.037414E-002,6.037414E-002,
   **   ~~~   ** Air System Named = CENTRAL SYSTEM did not converge for energy
   **   ~~~   ** Check values should be zero. Most Recent values listed first.
   **   ~~~   ** Demand-to-Supply interface energy check value iteration history trace: 1195.456989,1195.456989,1195.456989,1195.456989,1195.456989,1195.456989,1195.456989,1195.456989,1195.456989,1195.456989,
   **   ~~~   ** Supply-to-demand interface deck 1 energy check value iteration history trace: 1917.158386,1917.158386,1917.158386,1917.158386,1917.158386,1917.158386,1917.158386,1917.158386,1917.158386,1917.158385,
   ** Warning ** SimHVAC: Maximum iterations (20) exceeded for all HVAC loops, at ANNUAL, 02/17 09:04 - 09:08
   **   ~~~   ** The solution for one or more of the Air Loop HVAC systems did not appear to converge
   **   ~~~   ** Air System Named = CENTRAL SYSTEM did not converge for mass flow rate
   **   ~~~   ** Check values should be zero. Most Recent values listed first.
   **   ~~~   ** Demand-to-Supply interface mass flow rate check value iteration history trace: 5.879907E-002,5.879907E-002,5.879907E-002,5.879907E-002,5.879907E-002,5.879907E-002,5.879907E-002,5.879907E-002,5.879907E-002,5.879907E-002,
   **   ~~~   ** Supply-to-demand interface deck 1 mass flow rate check value iteration history trace: 5.879907E-002,5.879907E-002,5.879907E-002,5.879907E-002,5.879907E-002,5.879907E-002,5.879907E-002,5.879907E-002,5.879907E-002,5.879907E-002,
   **   ~~~   ** Air System Named = CENTRAL SYSTEM did not converge for energy
   **   ~~~   ** Check values should be zero. Most Recent values listed first.
   **   ~~~   ** Demand-to-Supply interface energy check value iteration history trace: 1165.219938,1165.219938,1165.219938,1165.219938,1165.219938,1165.219938,1165.219938,1165.219938,1165.219938,1165.219938,
   **   ~~~   ** Supply-to-demand interface deck 1 energy check value iteration history trace: 2076.769032,2076.769032,2076.769032,2076.769032,2076.769032,2076.769032,2076.769032,2076.769032,2076.769032,2076.769032,
   ** Warning ** SimHVAC: Maximum iterations (20) exceeded for all HVAC loops, at ANNUAL, 03/29 13:30 - 13:45
   **   ~~~   ** The solution for one or more of the Air Loop HVAC systems did not appear to converge
   **   ~~~   ** Air System Named = CENTRAL SYSTEM did not converge for mass flow rate
   **   ~~~   ** Check values should be zero. Most Recent values listed first.
   **   ~~~   ** Demand-to-Supply interface mass flow rate check value iteration history trace: 8.318431E-002,8.318431E-002,8.318431E-002,8.318431E-002,8.318431E-002,8.318431E-002,8.318431E-002,8.318431E-002,8.318431E-002,8.318431E-002,
   **   ~~~   ** Supply-to-demand interface deck 1 mass flow rate check value iteration history trace: 8.318431E-002,8.318431E-002,8.318431E-002,8.318431E-002,8.318431E-002,8.318431E-002,8.318431E-002,8.318431E-002,8.318431E-002,8.318431E-002,
   **   ~~~   ** Air System Named = CENTRAL SYSTEM did not converge for energy
   **   ~~~   ** Check values should be zero. Most Recent values listed first.
   **   ~~~   ** Demand-to-Supply interface energy check value iteration history trace: 1968.814733,1968.814733,1968.814734,1968.814734,1968.814734,1968.814734,1968.814734,1968.814734,1968.814734,1968.814735,
   **   ~~~   ** Supply-to-demand interface deck 1 energy check value iteration history trace: 925.678385,925.678385,925.678385,925.678385,925.678385,925.678385,925.678386,925.678386,925.678386,925.678386,
   ** Warning ** SimHVAC: Maximum iterations (20) exceeded for all HVAC loops, at ANNUAL, 03/29 18:15 - 18:30
   **   ~~~   ** The solution for one or more of the Air Loop HVAC systems did not appear to converge
   **   ~~~   ** Air System Named = CENTRAL SYSTEM did not converge for mass flow rate
   **   ~~~   ** Check values should be zero. Most Recent values listed first.
   **   ~~~   ** Demand-to-Supply interface mass flow rate check value iteration history trace: 8.857022E-002,8.857022E-002,8.857022E-002,8.857022E-002,8.857022E-002,8.857022E-002,8.857022E-002,8.857022E-002,8.857022E-002,8.857022E-002,
   **   ~~~   ** Supply-to-demand interface deck 1 mass flow rate check value iteration history trace: 8.857022E-002,8.857022E-002,8.857022E-002,8.857022E-002,8.857022E-002,8.857022E-002,8.857022E-002,8.857022E-002,8.857022E-002,8.857022E-002,
   **   ~~~   ** Air System Named = CENTRAL SYSTEM did not converge for energy
   **   ~~~   ** Check values should be zero. Most Recent values listed first.
   **   ~~~   ** Demand-to-Supply interface energy check value iteration history trace: 2103.861859,2103.861859,2103.861859,2103.861859,2103.861859,2103.861859,2103.861859,2103.861859,2103.861860,2103.861860,
   **   ~~~   ** Supply-to-demand interface deck 1 energy check value iteration history trace: 920.166723,920.166723,920.166723,920.166723,920.166723,920.166723,920.166723,920.166723,920.166723,920.166723,
   ** Warning ** SimHVAC: Maximum iterations (20) exceeded for all HVAC loops, at ANNUAL, 04/02 11:40 - 11:45
   **   ~~~   ** The solution for one or more of the Air Loop HVAC systems did not appear to converge
   **   ~~~   ** Air System Named = CENTRAL SYSTEM did not converge for mass flow rate
   **   ~~~   ** Check values should be zero. Most Recent values listed first.
   **   ~~~   ** Demand-to-Supply interface mass flow rate check value iteration history trace: 0.160716,0.160716,0.160716,0.160716,0.160716,0.160716,0.160716,0.160716,0.160716,0.160716,
   **   ~~~   ** Supply-to-demand interface deck 1 mass flow rate check value iteration history trace: 0.160716,0.160716,0.160716,0.160716,0.160716,0.160716,0.160716,0.160716,0.160716,0.160716,
   **   ~~~   ** Air System Named = CENTRAL SYSTEM did not converge for energy
   **   ~~~   ** Check values should be zero. Most Recent values listed first.
   **   ~~~   ** Demand-to-Supply interface energy check value iteration history trace: 3814.283361,3814.283362,3814.283362,3814.283362,3814.283363,3814.283363,3814.283363,3814.283364,3814.283364,3814.283364,
   **   ~~~   ** Supply-to-demand interface deck 1 energy check value iteration history trace: 2265.376035,2265.376035,2265.376035,2265.376035,2265.376035,2265.376036,2265.376036,2265.376036,2265.376036,2265.376036,
   ** Warning ** SimHVAC: Maximum iterations (20) exceeded for all HVAC loops, at ANNUAL, 04/03 09:34 - 09:36
   **   ~~~   ** The solution for one or more of the Air Loop HVAC systems did not appear to converge
   **   ~~~   ** Air System Named = CENTRAL SYSTEM did not converge for mass flow rate
   **   ~~~   ** Check values should be zero. Most Recent values listed first.
   **   ~~~   ** Demand-to-Supply interface mass flow rate check value iteration history trace: 3.467477E-002,3.467477E-002,3.467477E-002,3.467477E-002,3.467477E-002,3.467477E-002,3.467477E-002,3.467477E-002,3.467477E-002,3.467477E-002,
   **   ~~~   ** Supply-to-demand interface deck 1 mass flow rate check value iteration history trace: 3.467477E-002,3.467477E-002,3.467477E-002,3.467477E-002,3.467477E-002,3.467477E-002,3.467477E-002,3.467477E-002,3.467477E-002,3.467477E-002,
   **   ~~~   ** Air System Named = CENTRAL SYSTEM did not converge for energy
   **   ~~~   ** Check values should be zero. Most Recent values listed first.
   **   ~~~   ** Demand-to-Supply interface energy check value iteration history trace: 813.354375,813.354375,813.354375,813.354375,813.354375,813.354375,813.354375,813.354376,813.354376,813.354376,
   **   ~~~   ** Supply-to-demand interface deck 1 energy check value iteration history trace: 310.302960,310.302960,310.302960,310.302960,310.302960,310.302960,310.302960,310.302960,310.302961,310.302961,
   ** Warning ** SimHVAC: Maximum iterations (20) exceeded for all HVAC loops, at ANNUAL, 04/05 09:08 - 09:15
   **   ~~~   ** The solution for one or more of the Air Loop HVAC systems did not appear to converge
   **   ~~~   ** Air System Named = CENTRAL SYSTEM did not converge for mass flow rate
   **   ~~~   ** Check values should be zero. Most Recent values listed first.
   **   ~~~   ** Demand-to-Supply interface mass flow rate check value iteration history trace: 0.231041,0.231041,0.231041,0.231041,0.231041,0.231041,0.231041,0.231041,0.231041,0.231041,
   **   ~~~   ** Supply-to-demand interface deck 1 mass flow rate check value iteration history trace: 0.231041,0.231041,0.231041,0.231041,0.231041,0.231041,0.231041,0.231041,0.231041,0.231041,
   **   ~~~   ** Air System Named = CENTRAL SYSTEM did not converge for energy
   **   ~~~   ** Check values should be zero. Most Recent values listed first.
   **   ~~~   ** Demand-to-Supply interface energy check value iteration history trace: 5527.015323,5527.015323,5527.015324,5527.015324,5527.015325,5527.015325,5527.015325,5527.015326,5527.015326,5527.015327,
   **   ~~~   ** Supply-to-demand interface deck 1 energy check value iteration history trace: 3159.562857,3159.562857,3159.562857,3159.562857,3159.562858,3159.562858,3159.562858,3159.562858,3159.562859,3159.562859,
   ** Warning ** SimHVAC: Maximum iterations (20) exceeded for all HVAC loops, at ANNUAL, 04/09 10:49 - 10:52
   **   ~~~   ** The solution for one or more of the Air Loop HVAC systems did not appear to converge
   **   ~~~   ** Air System Named = CENTRAL SYSTEM did not converge for mass flow rate
   **   ~~~   ** Check values should be zero. Most Recent values listed first.
   **   ~~~   ** Demand-to-Supply interface mass flow rate check value iteration history trace: 0.134991,0.134991,0.134991,0.134991,0.134991,0.134991,0.134991,0.134991,0.134991,0.134991,
   **   ~~~   ** Supply-to-demand interface deck 1 mass flow rate check value iteration history trace: 0.134991,0.134991,0.134991,0.134991,0.134991,0.134991,0.134991,0.134991,0.134991,0.134991,
   **   ~~~   ** Air System Named = CENTRAL SYSTEM did not converge for energy
   **   ~~~   ** Check values should be zero. Most Recent values listed first.
   **   ~~~   ** Demand-to-Supply interface energy check value iteration history trace: 3203.877592,3203.877592,3203.877592,3203.877592,3203.877593,3203.877593,3203.877593,3203.877593,3203.877593,3203.877593,
   **   ~~~   ** Supply-to-demand interface deck 1 energy check value iteration history trace: 1262.877984,1262.877984,1262.877984,1262.877984,1262.877984,1262.877984,1262.877984,1262.877984,1262.877984,1262.877984,
   ** Warning ** SimHVAC: Maximum iterations (20) exceeded for all HVAC loops, at ANNUAL, 04/10 23:00 - 23:15
   **   ~~~   ** The solution for one or more of the Air Loop HVAC systems did not appear to converge
   **   ~~~   ** Air System Named = CENTRAL SYSTEM did not converge for energy
   **   ~~~   ** Check values should be zero. Most Recent values listed first.
   **   ~~~   ** Demand-to-Supply interface energy check value iteration history trace: 142.620553,142.620553,142.620553,142.620553,142.620553,142.620553,142.620553,142.620553,142.620553,142.620553,
   **   ~~~   ** Supply-to-demand interface deck 1 energy check value iteration history trace: 67.424070,67.424070,67.424070,67.424070,67.424070,67.424070,67.424070,67.424070,67.424070,67.424070,
   ************* Simulation Error Summary *************
   ** Warning ** The following Report Variables were requested but not generated -- check.rdd file
   **   ~~~   ** Either the IDF did not contain these elements, the variable name is misspelled,
   **   ~~~   ** or the requested variable is an advanced output which requires Output : Diagnostics, DisplayAdvancedReportVariables;
   ************* Key=*, VarName=BASEBOARD TOTAL HEATING ENERGY, Frequency=
   ************* Key=*, VarName=WATER HEATER NATURALGAS ENERGY, Frequency=
   ************* Key=*, VarName=COOLING COIL TOTAL HEATING ENERGY, Frequency=
   ************* There are 34 unused schedules in input.
   ************* There are 388 unused week schedules in input.
   ************* There are 396 unused day schedules in input.
   ************* Use Output:Diagnostics,DisplayUnusedSchedules; to see them.
   *************
   ************* ===== Recurring Error Summary =====
   ************* The following recurring error messages occurred.
   *************
   *************  ** Warning ** "TOTAL HOT WATER LOAD" - Target water temperature should be less than or equal to the hot water temperature error continues...
   *************  **   ~~~   **   This error occurred 114785 total times;
   *************  **   ~~~   **   during Warmup 0 times;
   *************  **   ~~~   **   during Sizing 0 times.
   *************  **   ~~~   **   Max=10.759777  Min=1.051639E-004
   *************
   *************  ** Warning ** SimHVAC: Exceeding Maximum iterations for all HVAC loops, during ANNUAL continues
   *************  **   ~~~   **   This error occurred 8 total times;
   *************  **   ~~~   **   during Warmup 0 times;
   *************  **   ~~~   **   during Sizing 0 times.
   *************
   *************
   ************* ===== Final Error Summary =====
   ************* The following error categories occurred.  Consider correcting or noting.
   ************* Nominally Unused Constructions
   ************* ..The nominally unused constructions warning is provided to alert you to potential conditions that can cause
   ************* ..extra time during simulation. Each construction is calculated by the algorithm indicated in the HeatBalanceAlgorithm
   ************* ..object. You may remove the constructions indicated (when you use the DisplayExtraWarnings option).
   *************
   ************* EnergyPlus Warmup Error Summary. During Warmup: 0 Warning; 0 Severe Errors.
   ************* EnergyPlus Sizing Error Summary. During Sizing: 4 Warning; 0 Severe Errors.
   ************* EnergyPlus Completed Successfully-- 114824 Warning; 0 Severe Errors; Elapsed Time=00hr 01min 34.54sec
