Program Version,EnergyPlus, Version 22.2.0-c249759bad, YMD=2023.09.01 19:14,
   ************* Beginning Zone Sizing Calculations
   ** Warning ** ProcessScheduleInput: Schedule:Constant="ALWAYS ON DISCRETE", Schedule Type Limits Name="ONOFF" not found -- will not be validated
   ** Warning ** Foundation:Kiva="KIVA FOUNDATION", no Interior Horizontal Insulation Material Name defined
   **   ~~~   ** Interior Horizontal Insulation Depth will not be used.
   ** Warning ** CheckUsedConstructions: There are 15 nominally unused constructions in input.
   **   ~~~   ** Each Unused construction is shown.
   ************* Construction=INTERIOR FLOOR
   ************* Construction=INTERIOR WINDOW
   ************* Construction=EXTERIOR DOOR
   ************* Construction=INTERIOR DOOR
   ************* Construction=GABLE CONSTRUCTION
   ************* Construction=CRAWL_FLOOR
   ************* Construction=INSULATED PIPE
   ************* Construction=PLAIN PIPE
   ************* Construction=TDD PIPE
   ************* Construction=TDD DOME
   ************* Construction=TDD DIFFUSER
   ************* Construction=CRAWL WALL
   ************* Construction=CEILING-FLOOR-LAYER
   ************* Construction=SLAB CONSTRUCTION W FULL R10 INSULATION
   ************* Construction=SLAB CONSTRUCTION W FULL R5 INSULATION
   ** Warning ** GetDXCoils: Coil:Heating:DX:SingleSpeed="DX_HEATING_COIL" curve values
   **   ~~~   ** ... Defrost Energy Input Ratio Function of Temperature Curve Name = DEFROSTEIR output is not equal to 1.0 (+ or - 10%) at rated conditions.
   **   ~~~   ** ... Curve output at rated conditions = 0.152
   ************* Beginning System Sizing Calculations
   ************* Beginning Plant Sizing Calculations
   ** Warning ** Coil:WaterHeating:AirToWaterHeatPump:Wrapped "HEAT PUMP WATER HEATER EVAPORATOR": Rated air volume flow rate per watt of rated total water heating capacity is out of range
   **   ~~~   ** Min Rated Vol Flow Per Watt=[4.027E-005], Rated Vol Flow Per Watt=[1.510E-004], Max Rated Vol Flow Per Watt=[8.056E-005]. See Input-Output Reference Manual for valid range.
   ************* SizeFan: : Potential issue with equipment sizing for Fan:OnOff HEAT PUMP WATER HEATER FAN
   **   ~~~   ** User-Specified Maximum Flow Rate [m3/s] = 0.22653
   **   ~~~   ** differs from Design Size Maximum Flow Rate [m3/s] = 7.55250E-002
   **   ~~~   ** This may, or may not, indicate mismatched component sizes.
   **   ~~~   ** Verify that the value entered is intended and is consistent with other components.
   ** Warning ** Water heater = WATER HEATER TANK:  Recovery Efficiency and Energy Factor could not be calculated during the test for standard ratings
   **   ~~~   ** Setpoint was never recovered and/or heater never turned on
   ** Warning ** Check input. Pump nominal power or motor efficiency is set to 0, for pump=MAINS PRESSURE
   ** Warning ** Output:Meter: invalid Key Name="ELECTRIC_RANGE:INTERIOREQUIPMENT:ELECTRICITY" - not found.
   ** Warning ** Output:Meter: invalid Key Name="ELECTRIC_DRYER:INTERIOREQUIPMENT:ELECTRICITY" - not found.
   ** Warning ** Output:Meter: invalid Key Name="HEATRECOVERY:ELECTRICITY" - not found.
   ** Warning ** Output:Meter: invalid Key Name="HEATING:NATURALGAS" - not found.
   ** Warning ** Output:Meter: invalid Key Name="WATERSYSTEMS:NATURALGAS" - not found.
   ** Warning ** Output:Meter: invalid Key Name="PROPANE:FACILITY" - not found.
   ** Warning ** Output:Meter: invalid Key Name="HEATING:PROPANE" - not found.
   ************* Testing Individual Branch Integrity
   ************* All Branches passed integrity testing
   ************* Testing Individual Supply Air Path Integrity
   ************* All Supply Air Paths passed integrity testing
   ************* Testing Individual Return Air Path Integrity
   ************* All Return Air Paths passed integrity testing
   ************* No node connection errors were found.
   ************* Beginning Simulation
   ** Warning ** AirflowNetwork::Solver::validate_distribution: Heat pump water heater is simulated along with an AirflowNetwork but is not included in the AirflowNetwork.
   ** Warning ** CalcEquipmentFlowRates: "TOTAL HOT WATER LOAD" - Target water temperature is greater than the hot water temperature by (1.54 C)
   **   ~~~   **  Environment=EXTREME_WINTER, at Simulation time=01/06 06:45 - 07:00
   **   ~~~   ** ...target water temperature     = 53.33 C
   **   ~~~   ** ...hot water temperature        = 51.79 C
   **   ~~~   ** ...Target water temperature should be less than or equal to the hot water temperature. Verify temperature setpoints and schedules.
   ** Warning ** SimHVAC: Maximum iterations (20) exceeded for all HVAC loops, at ANNUAL, 01/05 10:49 - 10:52
   **   ~~~   ** The solution for one or more of the Air Loop HVAC systems did not appear to converge
   **   ~~~   ** Air System Named = CENTRAL SYSTEM did not converge for mass flow rate
   **   ~~~   ** Check values should be zero. Most Recent values listed first.
   **   ~~~   ** Demand-to-Supply interface mass flow rate check value iteration history trace: 7.769623E-002,7.769623E-002,7.769623E-002,7.769623E-002,7.769623E-002,7.769623E-002,7.769623E-002,7.769623E-002,7.769623E-002,7.769623E-002,
   **   ~~~   ** Supply-to-demand interface deck 1 mass flow rate check value iteration history trace: 7.769623E-002,7.769623E-002,7.769623E-002,7.769623E-002,7.769623E-002,7.769623E-002,7.769623E-002,7.769623E-002,7.769623E-002,7.769623E-002,
   **   ~~~   ** Air System Named = CENTRAL SYSTEM did not converge for energy
   **   ~~~   ** Check values should be zero. Most Recent values listed first.
   **   ~~~   ** Demand-to-Supply interface energy check value iteration history trace: 1539.715066,1539.715065,1539.715065,1539.715065,1539.715065,1539.715065,1539.715065,1539.715065,1539.715065,1539.715065,
   **   ~~~   ** Supply-to-demand interface deck 1 energy check value iteration history trace: 2620.322665,2620.322665,2620.322665,2620.322665,2620.322665,2620.322665,2620.322665,2620.322664,2620.322664,2620.322664,
   ** Warning ** SimHVAC: Maximum iterations (20) exceeded for all HVAC loops, at ANNUAL, 01/07 10:49 - 10:52
   **   ~~~   ** The solution for one or more of the Air Loop HVAC systems did not appear to converge
   **   ~~~   ** Air System Named = CENTRAL SYSTEM did not converge for mass flow rate
   **   ~~~   ** Check values should be zero. Most Recent values listed first.
   **   ~~~   ** Demand-to-Supply interface mass flow rate check value iteration history trace: 6.867614E-002,6.867614E-002,6.867614E-002,6.867614E-002,6.867614E-002,6.867614E-002,6.867614E-002,6.867614E-002,6.867614E-002,6.867614E-002,
   **   ~~~   ** Supply-to-demand interface deck 1 mass flow rate check value iteration history trace: 6.867614E-002,6.867614E-002,6.867614E-002,6.867614E-002,6.867614E-002,6.867614E-002,6.867614E-002,6.867614E-002,6.867614E-002,6.867614E-002,
   **   ~~~   ** Air System Named = CENTRAL SYSTEM did not converge for energy
   **   ~~~   ** Check values should be zero. Most Recent values listed first.
   **   ~~~   ** Demand-to-Supply interface energy check value iteration history trace: 1351.014848,1351.014848,1351.014848,1351.014848,1351.014848,1351.014847,1351.014847,1351.014847,1351.014847,1351.014847,
   **   ~~~   ** Supply-to-demand interface deck 1 energy check value iteration history trace: 2412.722180,2412.722180,2412.722180,2412.722180,2412.722180,2412.722180,2412.722180,2412.722180,2412.722180,2412.722179,
   ** Warning ** SimHVAC: Maximum iterations (20) exceeded for all HVAC loops, at ANNUAL, 01/20 09:04 - 09:06
   **   ~~~   ** The solution for one or more of the Air Loop HVAC systems did not appear to converge
   **   ~~~   ** Air System Named = CENTRAL SYSTEM did not converge for mass flow rate
   **   ~~~   ** Check values should be zero. Most Recent values listed first.
   **   ~~~   ** Demand-to-Supply interface mass flow rate check value iteration history trace: 5.553584E-002,5.553584E-002,5.553584E-002,5.553584E-002,5.553584E-002,5.553584E-002,5.553584E-002,5.553584E-002,5.553584E-002,5.553584E-002,
   **   ~~~   ** Supply-to-demand interface deck 1 mass flow rate check value iteration history trace: 5.553584E-002,5.553584E-002,5.553584E-002,5.553584E-002,5.553584E-002,5.553584E-002,5.553584E-002,5.553584E-002,5.553584E-002,5.553584E-002,
   **   ~~~   ** Air System Named = CENTRAL SYSTEM did not converge for energy
   **   ~~~   ** Check values should be zero. Most Recent values listed first.
   **   ~~~   ** Demand-to-Supply interface energy check value iteration history trace: 1096.468025,1096.468025,1096.468025,1096.468025,1096.468025,1096.468025,1096.468025,1096.468024,1096.468024,1096.468024,
   **   ~~~   ** Supply-to-demand interface deck 1 energy check value iteration history trace: 1966.064206,1966.064206,1966.064206,1966.064206,1966.064205,1966.064205,1966.064205,1966.064205,1966.064205,1966.064205,
   ** Warning ** SimHVAC: Maximum iterations (20) exceeded for all HVAC loops, at ANNUAL, 02/06 09:12 - 09:14
   **   ~~~   ** The solution for one or more of the Air Loop HVAC systems did not appear to converge
   **   ~~~   ** Air System Named = CENTRAL SYSTEM did not converge for mass flow rate
   **   ~~~   ** Check values should be zero. Most Recent values listed first.
   **   ~~~   ** Demand-to-Supply interface mass flow rate check value iteration history trace: 5.965454E-002,5.965454E-002,5.965454E-002,5.965454E-002,5.965454E-002,5.965454E-002,5.965454E-002,5.965454E-002,5.965454E-002,5.965454E-002,
   **   ~~~   ** Supply-to-demand interface deck 1 mass flow rate check value iteration history trace: 5.965454E-002,5.965454E-002,5.965454E-002,5.965454E-002,5.965454E-002,5.965454E-002,5.965454E-002,5.965454E-002,5.965454E-002,5.965454E-002,
   **   ~~~   ** Air System Named = CENTRAL SYSTEM did not converge for energy
   **   ~~~   ** Check values should be zero. Most Recent values listed first.
   **   ~~~   ** Demand-to-Supply interface energy check value iteration history trace: 1179.266942,1179.266942,1179.266942,1179.266942,1179.266942,1179.266942,1179.266942,1179.266942,1179.266942,1179.266942,
   **   ~~~   ** Supply-to-demand interface deck 1 energy check value iteration history trace: 2126.307815,2126.307814,2126.307814,2126.307814,2126.307814,2126.307814,2126.307814,2126.307814,2126.307814,2126.307814,
   ** Warning ** SimHVAC: Maximum iterations (20) exceeded for all HVAC loops, at ANNUAL, 02/24 07:45 - 08:00
   **   ~~~   ** The solution for one or more of the Air Loop HVAC systems did not appear to converge
   **   ~~~   ** Air System Named = CENTRAL SYSTEM did not converge for mass flow rate
   **   ~~~   ** Check values should be zero. Most Recent values listed first.
   **   ~~~   ** Demand-to-Supply interface mass flow rate check value iteration history trace: 7.339928E-002,7.339928E-002,7.339928E-002,7.339928E-002,7.339928E-002,7.339928E-002,7.339928E-002,7.339928E-002,7.339928E-002,7.339928E-002,
   **   ~~~   ** Supply-to-demand interface deck 1 mass flow rate check value iteration history trace: 7.339928E-002,7.339928E-002,7.339928E-002,7.339928E-002,7.339928E-002,7.339928E-002,7.339928E-002,7.339928E-002,7.339928E-002,7.339928E-002,
   **   ~~~   ** Air System Named = CENTRAL SYSTEM did not converge for energy
   **   ~~~   ** Check values should be zero. Most Recent values listed first.
   **   ~~~   ** Demand-to-Supply interface energy check value iteration history trace: 1454.468145,1454.468145,1454.468145,1454.468145,1454.468145,1454.468145,1454.468145,1454.468145,1454.468145,1454.468145,
   **   ~~~   ** Supply-to-demand interface deck 1 energy check value iteration history trace: 2507.947859,2507.947859,2507.947859,2507.947858,2507.947858,2507.947858,2507.947858,2507.947858,2507.947858,2507.947858,
   ** Warning ** SimHVAC: Maximum iterations (20) exceeded for all HVAC loops, at ANNUAL, 03/26 09:15 - 09:30
   **   ~~~   ** The solution for one or more of the Air Loop HVAC systems did not appear to converge
   **   ~~~   ** Air System Named = CENTRAL SYSTEM did not converge for mass flow rate
   **   ~~~   ** Check values should be zero. Most Recent values listed first.
   **   ~~~   ** Demand-to-Supply interface mass flow rate check value iteration history trace: 6.582732E-002,6.582732E-002,6.582732E-002,6.582732E-002,6.582732E-002,6.582732E-002,6.582732E-002,6.582732E-002,6.582732E-002,6.582732E-002,
   **   ~~~   ** Supply-to-demand interface deck 1 mass flow rate check value iteration history trace: 6.582732E-002,6.582732E-002,6.582732E-002,6.582732E-002,6.582732E-002,6.582732E-002,6.582732E-002,6.582732E-002,6.582732E-002,6.582732E-002,
   **   ~~~   ** Air System Named = CENTRAL SYSTEM did not converge for energy
   **   ~~~   ** Check values should be zero. Most Recent values listed first.
   **   ~~~   ** Demand-to-Supply interface energy check value iteration history trace: 1559.730131,1559.730131,1559.730132,1559.730132,1559.730132,1559.730132,1559.730132,1559.730133,1559.730133,1559.730133,
   **   ~~~   ** Supply-to-demand interface deck 1 energy check value iteration history trace: 835.173902,835.173902,835.173902,835.173902,835.173902,835.173902,835.173902,835.173902,835.173903,835.173903,
   ** Warning ** SimHVAC: Maximum iterations (20) exceeded for all HVAC loops, at ANNUAL, 04/03 09:13 - 09:15
   **   ~~~   ** The solution for one or more of the Air Loop HVAC systems did not appear to converge
   **   ~~~   ** Air System Named = CENTRAL SYSTEM did not converge for mass flow rate
   **   ~~~   ** Check values should be zero. Most Recent values listed first.
   **   ~~~   ** Demand-to-Supply interface mass flow rate check value iteration history trace: 0.210563,0.210563,0.210563,0.210563,0.210563,0.210563,0.210563,0.210563,0.210563,0.210563,
   **   ~~~   ** Supply-to-demand interface deck 1 mass flow rate check value iteration history trace: 0.210563,0.210563,0.210563,0.210563,0.210563,0.210563,0.210563,0.210563,0.210563,0.210563,
   **   ~~~   ** Air System Named = CENTRAL SYSTEM did not converge for energy
   **   ~~~   ** Check values should be zero. Most Recent values listed first.
   **   ~~~   ** Demand-to-Supply interface energy check value iteration history trace: 5001.195904,5001.195904,5001.195904,5001.195905,5001.195905,5001.195905,5001.195906,5001.195906,5001.195906,5001.195906,
   **   ~~~   ** Supply-to-demand interface deck 1 energy check value iteration history trace: 2397.977008,2397.977009,2397.977009,2397.977009,2397.977009,2397.977009,2397.977009,2397.977010,2397.977010,2397.977010,
   ** Warning ** SimHVAC: Maximum iterations (20) exceeded for all HVAC loops, at ANNUAL, 04/08 12:23 - 12:30
   **   ~~~   ** The solution for one or more of the Air Loop HVAC systems did not appear to converge
   **   ~~~   ** Air System Named = CENTRAL SYSTEM did not converge for mass flow rate
   **   ~~~   ** Check values should be zero. Most Recent values listed first.
   **   ~~~   ** Demand-to-Supply interface mass flow rate check value iteration history trace: 5.352763E-002,5.352763E-002,5.352763E-002,5.352763E-002,5.352763E-002,5.352763E-002,5.352763E-002,5.352763E-002,5.352763E-002,5.352763E-002,
   **   ~~~   ** Supply-to-demand interface deck 1 mass flow rate check value iteration history trace: 5.352763E-002,5.352763E-002,5.352763E-002,5.352763E-002,5.352763E-002,5.352763E-002,5.352763E-002,5.352763E-002,5.352763E-002,5.352763E-002,
   **   ~~~   ** Air System Named = CENTRAL SYSTEM did not converge for energy
   **   ~~~   ** Check values should be zero. Most Recent values listed first.
   **   ~~~   ** Demand-to-Supply interface energy check value iteration history trace: 1259.648032,1259.648032,1259.648032,1259.648032,1259.648032,1259.648032,1259.648032,1259.648032,1259.648032,1259.648032,
   **   ~~~   ** Supply-to-demand interface deck 1 energy check value iteration history trace: 531.748606,531.748606,531.748606,531.748606,531.748606,531.748606,531.748606,531.748606,531.748606,531.748606,
   ** Warning ** SimHVAC: Maximum iterations (20) exceeded for all HVAC loops, at ANNUAL, 11/28 14:50 - 14:55
   **   ~~~   ** The solution for one or more of the Air Loop HVAC systems did not appear to converge
   **   ~~~   ** Air System Named = CENTRAL SYSTEM did not converge for mass flow rate
   **   ~~~   ** Check values should be zero. Most Recent values listed first.
   **   ~~~   ** Demand-to-Supply interface mass flow rate check value iteration history trace: 0.191271,0.191271,0.191271,0.191271,0.191271,0.191271,0.191271,0.191271,0.191271,0.191271,
   **   ~~~   ** Supply-to-demand interface deck 1 mass flow rate check value iteration history trace: 0.191271,0.191271,0.191271,0.191271,0.191271,0.191271,0.191271,0.191271,0.191271,0.191271,
   **   ~~~   ** Air System Named = CENTRAL SYSTEM did not converge for energy
   **   ~~~   ** Check values should be zero. Most Recent values listed first.
   **   ~~~   ** Demand-to-Supply interface energy check value iteration history trace: 4520.678190,4520.678191,4520.678191,4520.678191,4520.678191,4520.678192,4520.678192,4520.678192,4520.678192,4520.678193,
   **   ~~~   ** Supply-to-demand interface deck 1 energy check value iteration history trace: 1928.992004,1928.992004,1928.992004,1928.992005,1928.992005,1928.992005,1928.992005,1928.992005,1928.992005,1928.992005,
   ** Warning ** SimHVAC: Maximum iterations (20) exceeded for all HVAC loops, at ANNUAL, 11/28 18:56 - 19:00
   **   ~~~   ** The solution for one or more of the Air Loop HVAC systems did not appear to converge
   **   ~~~   ** Air System Named = CENTRAL SYSTEM did not converge for mass flow rate
   **   ~~~   ** Check values should be zero. Most Recent values listed first.
   **   ~~~   ** Demand-to-Supply interface mass flow rate check value iteration history trace: 0.306423,0.306423,0.306423,0.306423,0.306423,0.306423,0.306423,0.306423,0.306423,0.306423,
   **   ~~~   ** Supply-to-demand interface deck 1 mass flow rate check value iteration history trace: 0.306423,0.306423,0.306423,0.306423,0.306423,0.306423,0.306423,0.306423,0.306423,0.306423,
   **   ~~~   ** Air System Named = CENTRAL SYSTEM did not converge for energy
   **   ~~~   ** Check values should be zero. Most Recent values listed first.
   **   ~~~   ** Demand-to-Supply interface energy check value iteration history trace: 7357.349517,7357.349518,7357.349519,7357.349520,7357.349521,7357.349522,7357.349523,7357.349523,7357.349524,7357.349525,
   **   ~~~   ** Supply-to-demand interface deck 1 energy check value iteration history trace: 3170.259487,3170.259488,3170.259488,3170.259488,3170.259489,3170.259489,3170.259490,3170.259490,3170.259490,3170.259491,
   ** Warning ** SimHVAC: Maximum iterations (20) exceeded for all HVAC loops, at ANNUAL, 12/01 08:51 - 08:52
   **   ~~~   ** The solution for one or more of the Air Loop HVAC systems did not appear to converge
   **   ~~~   ** Air System Named = CENTRAL SYSTEM did not converge for mass flow rate
   **   ~~~   ** Check values should be zero. Most Recent values listed first.
   **   ~~~   ** Demand-to-Supply interface mass flow rate check value iteration history trace: 6.613642E-002,6.613642E-002,6.613642E-002,6.613642E-002,6.613642E-002,6.613642E-002,6.613642E-002,6.613642E-002,6.613642E-002,6.613642E-002,
   **   ~~~   ** Supply-to-demand interface deck 1 mass flow rate check value iteration history trace: 6.613642E-002,6.613642E-002,6.613642E-002,6.613642E-002,6.613642E-002,6.613642E-002,6.613642E-002,6.613642E-002,6.613642E-002,6.613642E-002,
   **   ~~~   ** Air System Named = CENTRAL SYSTEM did not converge for energy
   **   ~~~   ** Check values should be zero. Most Recent values listed first.
   **   ~~~   ** Demand-to-Supply interface energy check value iteration history trace: 1305.556748,1305.556748,1305.556748,1305.556748,1305.556748,1305.556747,1305.556747,1305.556747,1305.556747,1305.556747,
   **   ~~~   ** Supply-to-demand interface deck 1 energy check value iteration history trace: 2261.225837,2261.225837,2261.225837,2261.225837,2261.225837,2261.225837,2261.225837,2261.225836,2261.225836,2261.225836,
   ** Warning ** SimHVAC: Maximum iterations (20) exceeded for all HVAC loops, at ANNUAL, 12/08 09:15 - 09:19
   **   ~~~   ** The solution for one or more of the Air Loop HVAC systems did not appear to converge
   **   ~~~   ** Air System Named = CENTRAL SYSTEM did not converge for mass flow rate
   **   ~~~   ** Check values should be zero. Most Recent values listed first.
   **   ~~~   ** Demand-to-Supply interface mass flow rate check value iteration history trace: 6.514066E-002,6.514066E-002,6.514066E-002,6.514066E-002,6.514066E-002,6.514066E-002,6.514066E-002,6.514066E-002,6.514066E-002,6.514066E-002,
   **   ~~~   ** Supply-to-demand interface deck 1 mass flow rate check value iteration history trace: 6.514066E-002,6.514066E-002,6.514066E-002,6.514066E-002,6.514066E-002,6.514066E-002,6.514066E-002,6.514066E-002,6.514066E-002,6.514066E-002,
   **   ~~~   ** Air System Named = CENTRAL SYSTEM did not converge for energy
   **   ~~~   ** Check values should be zero. Most Recent values listed first.
   **   ~~~   ** Demand-to-Supply interface energy check value iteration history trace: 1284.731712,1284.731712,1284.731712,1284.731711,1284.731711,1284.731711,1284.731711,1284.731711,1284.731711,1284.731711,
   **   ~~~   ** Supply-to-demand interface deck 1 energy check value iteration history trace: 2172.752559,2172.752559,2172.752559,2172.752559,2172.752559,2172.752559,2172.752558,2172.752558,2172.752558,2172.752558,
   ** Warning ** SimHVAC: Maximum iterations (20) exceeded for all HVAC loops, at ANNUAL, 12/11 17:53 - 18:00
   **   ~~~   ** The solution for one or more of the Air Loop HVAC systems did not appear to converge
   **   ~~~   ** Air System Named = CENTRAL SYSTEM did not converge for mass flow rate
   **   ~~~   ** Check values should be zero. Most Recent values listed first.
   **   ~~~   ** Demand-to-Supply interface mass flow rate check value iteration history trace: 5.721964E-002,5.721964E-002,5.721964E-002,5.721964E-002,5.721964E-002,5.721964E-002,5.721964E-002,5.721964E-002,5.721964E-002,5.721964E-002,
   **   ~~~   ** Supply-to-demand interface deck 1 mass flow rate check value iteration history trace: 5.721964E-002,5.721964E-002,5.721964E-002,5.721964E-002,5.721964E-002,5.721964E-002,5.721964E-002,5.721964E-002,5.721964E-002,5.721964E-002,
   **   ~~~   ** Air System Named = CENTRAL SYSTEM did not converge for energy
   **   ~~~   ** Check values should be zero. Most Recent values listed first.
   **   ~~~   ** Demand-to-Supply interface energy check value iteration history trace: 1133.299814,1133.299814,1133.299814,1133.299814,1133.299814,1133.299814,1133.299814,1133.299814,1133.299814,1133.299814,
   **   ~~~   ** Supply-to-demand interface deck 1 energy check value iteration history trace: 1972.276231,1972.276231,1972.276231,1972.276231,1972.276231,1972.276231,1972.276231,1972.276231,1972.276231,1972.276230,
   ************* Simulation Error Summary *************
   ** Warning ** The following Report Variables were requested but not generated -- check.rdd file
   **   ~~~   ** Either the IDF did not contain these elements, the variable name is misspelled,
   **   ~~~   ** or the requested variable is an advanced output which requires Output : Diagnostics, DisplayAdvancedReportVariables;
   ************* Key=*, VarName=BASEBOARD TOTAL HEATING ENERGY, Frequency=
   ************* Key=*, VarName=WATER HEATER NATURALGAS ENERGY, Frequency=
   ************* Key=*, VarName=COOLING COIL TOTAL HEATING ENERGY, Frequency=
   ************* There are 34 unused schedules in input.
   ************* There are 388 unused week schedules in input.
   ************* There are 397 unused day schedules in input.
   ************* Use Output:Diagnostics,DisplayUnusedSchedules; to see them.
   *************
   ************* ===== Recurring Error Summary =====
   ************* The following recurring error messages occurred.
   *************
   *************  ** Warning ** "TOTAL HOT WATER LOAD" - Target water temperature should be less than or equal to the hot water temperature error continues...
   *************  **   ~~~   **   This error occurred 118739 total times;
   *************  **   ~~~   **   during Warmup 0 times;
   *************  **   ~~~   **   during Sizing 0 times.
   *************  **   ~~~   **   Max=9.299305  Min=3.908239E-005
   *************
   *************
   ************* ===== Final Error Summary =====
   ************* The following error categories occurred.  Consider correcting or noting.
   ************* Nominally Unused Constructions
   ************* ..The nominally unused constructions warning is provided to alert you to potential conditions that can cause
   ************* ..extra time during simulation. Each construction is calculated by the algorithm indicated in the HeatBalanceAlgorithm
   ************* ..object. You may remove the constructions indicated (when you use the DisplayExtraWarnings option).
   *************
   ************* EnergyPlus Warmup Error Summary. During Warmup: 1 Warning; 0 Severe Errors.
   ************* EnergyPlus Sizing Error Summary. During Sizing: 4 Warning; 0 Severe Errors.
   ************* EnergyPlus Completed Successfully-- 118769 Warning; 0 Severe Errors; Elapsed Time=00hr 01min 41.72sec
