Program Version,EnergyPlus, Version 22.2.0-c249759bad, YMD=2023.09.01 20:08,
   ************* Beginning Zone Sizing Calculations
   ** Warning ** ProcessScheduleInput: Schedule:Constant="ALWAYS ON DISCRETE", Schedule Type Limits Name="ONOFF" not found -- will not be validated
   ** Warning ** Foundation:Kiva="KIVA FOUNDATION", no Interior Horizontal Insulation Material Name defined
   **   ~~~   ** Interior Horizontal Insulation Depth will not be used.
   ** Warning ** CheckUsedConstructions: There are 15 nominally unused constructions in input.
   **   ~~~   ** Each Unused construction is shown.
   ************* Construction=INTERIOR FLOOR
   ************* Construction=INTERIOR WINDOW
   ************* Construction=EXTERIOR DOOR
   ************* Construction=INTERIOR DOOR
   ************* Construction=GABLE CONSTRUCTION
   ************* Construction=CRAWL_FLOOR
   ************* Construction=INSULATED PIPE
   ************* Construction=PLAIN PIPE
   ************* Construction=TDD PIPE
   ************* Construction=TDD DOME
   ************* Construction=TDD DIFFUSER
   ************* Construction=CRAWL WALL
   ************* Construction=CEILING-FLOOR-LAYER
   ************* Construction=SLAB CONSTRUCTION W FULL R10 INSULATION
   ************* Construction=SLAB CONSTRUCTION W FULL R5 INSULATION
   ** Warning ** GetDXCoils: Coil:Heating:DX:SingleSpeed="DX_HEATING_COIL" curve values
   **   ~~~   ** ... Defrost Energy Input Ratio Function of Temperature Curve Name = DEFROSTEIR output is not equal to 1.0 (+ or - 10%) at rated conditions.
   **   ~~~   ** ... Curve output at rated conditions = 0.152
   ************* Beginning System Sizing Calculations
   ************* Beginning Plant Sizing Calculations
   ** Warning ** SizeDXCoil Coil:Cooling:DX:SingleSpeed DX_COOLING_COIL
   **   ~~~   ** ...Gross Rated Total Cooling Capacity [W] will be limited by the maximum rated volume flow per rated total capacity ratio.
   **   ~~~   ** ...DX coil volume flow rate ( m3/s ) = 0.560003
   **   ~~~   ** ...Requested capacity ( W ) = 7475.998
   **   ~~~   ** ...Requested flow/capacity ratio ( m3/s/W ) = 7.490E-005
   **   ~~~   ** ...Maximum flow/capacity ratio ( m3/s/W ) = 6.041E-005
   **   ~~~   ** ...Adjusted capacity ( W ) = 9270.044
   ** Warning ** Coil:WaterHeating:AirToWaterHeatPump:Wrapped "HEAT PUMP WATER HEATER EVAPORATOR": Rated air volume flow rate per watt of rated total water heating capacity is out of range
   **   ~~~   ** Min Rated Vol Flow Per Watt=[4.027E-005], Rated Vol Flow Per Watt=[1.510E-004], Max Rated Vol Flow Per Watt=[8.056E-005]. See Input-Output Reference Manual for valid range.
   ************* SizeFan: : Potential issue with equipment sizing for Fan:OnOff HEAT PUMP WATER HEATER FAN
   **   ~~~   ** User-Specified Maximum Flow Rate [m3/s] = 0.22653
   **   ~~~   ** differs from Design Size Maximum Flow Rate [m3/s] = 7.55250E-002
   **   ~~~   ** This may, or may not, indicate mismatched component sizes.
   **   ~~~   ** Verify that the value entered is intended and is consistent with other components.
   ** Warning ** Water heater = WATER HEATER TANK:  Recovery Efficiency and Energy Factor could not be calculated during the test for standard ratings
   **   ~~~   ** Setpoint was never recovered and/or heater never turned on
   ** Warning ** Check input. Pump nominal power or motor efficiency is set to 0, for pump=MAINS PRESSURE
   ** Warning ** Output:Meter: invalid Key Name="ELECTRIC_RANGE:INTERIOREQUIPMENT:ELECTRICITY" - not found.
   ** Warning ** Output:Meter: invalid Key Name="ELECTRIC_DRYER:INTERIOREQUIPMENT:ELECTRICITY" - not found.
   ** Warning ** Output:Meter: invalid Key Name="HEATRECOVERY:ELECTRICITY" - not found.
   ** Warning ** Output:Meter: invalid Key Name="HEATING:NATURALGAS" - not found.
   ** Warning ** Output:Meter: invalid Key Name="WATERSYSTEMS:NATURALGAS" - not found.
   ** Warning ** Output:Meter: invalid Key Name="PROPANE:FACILITY" - not found.
   ** Warning ** Output:Meter: invalid Key Name="HEATING:PROPANE" - not found.
   ************* Testing Individual Branch Integrity
   ************* All Branches passed integrity testing
   ************* Testing Individual Supply Air Path Integrity
   ************* All Supply Air Paths passed integrity testing
   ************* Testing Individual Return Air Path Integrity
   ************* All Return Air Paths passed integrity testing
   ************* No node connection errors were found.
   ************* Beginning Simulation
   ** Warning ** AirflowNetwork::Solver::validate_distribution: Heat pump water heater is simulated along with an AirflowNetwork but is not included in the AirflowNetwork.
   ** Warning ** CalcEquipmentFlowRates: "TOTAL HOT WATER LOAD" - Target water temperature is greater than the hot water temperature by (4.55 C)
   **   ~~~   **  Environment=EXTREME_WINTER, at Simulation time=12/22 07:00 - 07:15
   **   ~~~   ** ...target water temperature     = 53.33 C
   **   ~~~   ** ...hot water temperature        = 48.78 C
   **   ~~~   ** ...Target water temperature should be less than or equal to the hot water temperature. Verify temperature setpoints and schedules.
   ** Warning ** SimHVAC: Maximum iterations (20) exceeded for all HVAC loops, at EXTREME_WINTER, 12/24 17:00 - 17:15
   **   ~~~   ** The solution for one or more of the Air Loop HVAC systems did not appear to converge
   **   ~~~   ** Air System Named = CENTRAL SYSTEM did not converge for mass flow rate
   **   ~~~   ** Check values should be zero. Most Recent values listed first.
   **   ~~~   ** Demand-to-Supply interface mass flow rate check value iteration history trace: 7.830027E-002,7.830027E-002,7.830027E-002,7.830027E-002,7.830027E-002,7.830027E-002,7.830027E-002,7.830027E-002,7.830027E-002,7.830027E-002,
   **   ~~~   ** Supply-to-demand interface deck 1 mass flow rate check value iteration history trace: 7.830027E-002,7.830027E-002,7.830027E-002,7.830027E-002,7.830027E-002,7.830027E-002,7.830027E-002,7.830027E-002,7.830027E-002,7.830027E-002,
   **   ~~~   ** Air System Named = CENTRAL SYSTEM did not converge for energy
   **   ~~~   ** Check values should be zero. Most Recent values listed first.
   **   ~~~   ** Demand-to-Supply interface energy check value iteration history trace: 1542.816383,1542.816383,1542.816383,1542.816383,1542.816382,1542.816382,1542.816382,1542.816382,1542.816382,1542.816382,
   **   ~~~   ** Supply-to-demand interface deck 1 energy check value iteration history trace: 2455.374883,2455.374882,2455.374882,2455.374882,2455.374882,2455.374882,2455.374882,2455.374882,2455.374881,2455.374881,
   ** Warning ** SimHVAC: Maximum iterations (20) exceeded for all HVAC loops, at EXTREME_WINTER, 12/26 12:15 - 12:19
   **   ~~~   ** The solution for one or more of the Air Loop HVAC systems did not appear to converge
   **   ~~~   ** Air System Named = CENTRAL SYSTEM did not converge for mass flow rate
   **   ~~~   ** Check values should be zero. Most Recent values listed first.
   **   ~~~   ** Demand-to-Supply interface mass flow rate check value iteration history trace: 7.408426E-002,7.408426E-002,7.408426E-002,7.408426E-002,7.408426E-002,7.408426E-002,7.408426E-002,7.408426E-002,7.408426E-002,7.408426E-002,
   **   ~~~   ** Supply-to-demand interface deck 1 mass flow rate check value iteration history trace: 7.408426E-002,7.408426E-002,7.408426E-002,7.408426E-002,7.408426E-002,7.408426E-002,7.408426E-002,7.408426E-002,7.408426E-002,7.408426E-002,
   **   ~~~   ** Air System Named = CENTRAL SYSTEM did not converge for energy
   **   ~~~   ** Check values should be zero. Most Recent values listed first.
   **   ~~~   ** Demand-to-Supply interface energy check value iteration history trace: 1468.079965,1468.079965,1468.079965,1468.079965,1468.079964,1468.079964,1468.079964,1468.079964,1468.079964,1468.079964,
   **   ~~~   ** Supply-to-demand interface deck 1 energy check value iteration history trace: 2313.214619,2313.214619,2313.214619,2313.214618,2313.214618,2313.214618,2313.214618,2313.214618,2313.214618,2313.214618,
   ** Warning ** SimHVAC: Maximum iterations (20) exceeded for all HVAC loops, at EXTREME_WINTER, 12/27 12:23 - 12:30
   **   ~~~   ** The solution for one or more of the Air Loop HVAC systems did not appear to converge
   **   ~~~   ** Air System Named = CENTRAL SYSTEM did not converge for mass flow rate
   **   ~~~   ** Check values should be zero. Most Recent values listed first.
   **   ~~~   ** Demand-to-Supply interface mass flow rate check value iteration history trace: 6.229837E-002,6.229837E-002,6.229837E-002,6.229837E-002,6.229837E-002,6.229837E-002,6.229837E-002,6.229837E-002,6.229837E-002,6.229837E-002,
   **   ~~~   ** Supply-to-demand interface deck 1 mass flow rate check value iteration history trace: 6.229837E-002,6.229837E-002,6.229837E-002,6.229837E-002,6.229837E-002,6.229837E-002,6.229837E-002,6.229837E-002,6.229837E-002,6.229837E-002,
   **   ~~~   ** Air System Named = CENTRAL SYSTEM did not converge for energy
   **   ~~~   ** Check values should be zero. Most Recent values listed first.
   **   ~~~   ** Demand-to-Supply interface energy check value iteration history trace: 1225.225848,1225.225848,1225.225848,1225.225848,1225.225847,1225.225847,1225.225847,1225.225847,1225.225847,1225.225847,
   **   ~~~   ** Supply-to-demand interface deck 1 energy check value iteration history trace: 1941.367849,1941.367848,1941.367848,1941.367848,1941.367848,1941.367848,1941.367848,1941.367848,1941.367848,1941.367847,
   ** Warning ** SimHVAC: Maximum iterations (20) exceeded for all HVAC loops, at EXTREME_WINTER, 12/31 10:45 - 10:49
   **   ~~~   ** The solution for one or more of the Air Loop HVAC systems did not appear to converge
   **   ~~~   ** Air System Named = CENTRAL SYSTEM did not converge for mass flow rate
   **   ~~~   ** Check values should be zero. Most Recent values listed first.
   **   ~~~   ** Demand-to-Supply interface mass flow rate check value iteration history trace: 9.801677E-002,9.801677E-002,9.801677E-002,9.801677E-002,9.801677E-002,9.801677E-002,9.801677E-002,9.801677E-002,9.801677E-002,9.801677E-002,
   **   ~~~   ** Supply-to-demand interface deck 1 mass flow rate check value iteration history trace: 9.801677E-002,9.801677E-002,9.801677E-002,9.801677E-002,9.801677E-002,9.801677E-002,9.801677E-002,9.801677E-002,9.801677E-002,9.801677E-002,
   **   ~~~   ** Air System Named = CENTRAL SYSTEM did not converge for energy
   **   ~~~   ** Check values should be zero. Most Recent values listed first.
   **   ~~~   ** Demand-to-Supply interface energy check value iteration history trace: 1942.309423,1942.309422,1942.309422,1942.309422,1942.309422,1942.309422,1942.309422,1942.309422,1942.309421,1942.309421,
   **   ~~~   ** Supply-to-demand interface deck 1 energy check value iteration history trace: 2959.050733,2959.050733,2959.050733,2959.050733,2959.050732,2959.050732,2959.050732,2959.050732,2959.050731,2959.050731,
   ** Warning ** SimHVAC: Maximum iterations (20) exceeded for all HVAC loops, at EXTREME_WINTER, 01/03 12:23 - 12:30
   **   ~~~   ** The solution for one or more of the Air Loop HVAC systems did not appear to converge
   **   ~~~   ** Air System Named = CENTRAL SYSTEM did not converge for mass flow rate
   **   ~~~   ** Check values should be zero. Most Recent values listed first.
   **   ~~~   ** Demand-to-Supply interface mass flow rate check value iteration history trace: 6.948317E-002,6.948317E-002,6.948317E-002,6.948317E-002,6.948317E-002,6.948317E-002,6.948317E-002,6.948317E-002,6.948317E-002,6.948317E-002,
   **   ~~~   ** Supply-to-demand interface deck 1 mass flow rate check value iteration history trace: 6.948317E-002,6.948317E-002,6.948317E-002,6.948317E-002,6.948317E-002,6.948317E-002,6.948317E-002,6.948317E-002,6.948317E-002,6.948317E-002,
   **   ~~~   ** Air System Named = CENTRAL SYSTEM did not converge for energy
   **   ~~~   ** Check values should be zero. Most Recent values listed first.
   **   ~~~   ** Demand-to-Supply interface energy check value iteration history trace: 1365.505958,1365.505958,1365.505958,1365.505958,1365.505958,1365.505958,1365.505958,1365.505958,1365.505957,1365.505957,
   **   ~~~   ** Supply-to-demand interface deck 1 energy check value iteration history trace: 2094.626183,2094.626183,2094.626183,2094.626183,2094.626183,2094.626183,2094.626183,2094.626182,2094.626182,2094.626182,
   ** Warning ** SimHVAC: Maximum iterations (20) exceeded for all HVAC loops, at EXTREME_SUMMER, 07/26 03:45 - 04:00
   **   ~~~   ** The solution for one or more of the Air Loop HVAC systems did not appear to converge
   **   ~~~   ** Air System Named = CENTRAL SYSTEM did not converge for mass flow rate
   **   ~~~   ** Check values should be zero. Most Recent values listed first.
   **   ~~~   ** Demand-to-Supply interface mass flow rate check value iteration history trace: 3.285037E-002,3.285037E-002,3.285037E-002,3.285037E-002,3.285037E-002,3.285037E-002,3.285037E-002,3.285037E-002,3.285037E-002,3.285037E-002,
   **   ~~~   ** Supply-to-demand interface deck 1 mass flow rate check value iteration history trace: 3.285037E-002,3.285037E-002,3.285037E-002,3.285037E-002,3.285037E-002,3.285037E-002,3.285037E-002,3.285037E-002,3.285037E-002,3.285037E-002,
   **   ~~~   ** Air System Named = CENTRAL SYSTEM did not converge for energy
   **   ~~~   ** Check values should be zero. Most Recent values listed first.
   **   ~~~   ** Demand-to-Supply interface energy check value iteration history trace: 799.833979,799.833979,799.833979,799.833979,799.833979,799.833979,799.833979,799.833980,799.833980,799.833980,
   **   ~~~   ** Supply-to-demand interface deck 1 energy check value iteration history trace: 333.611986,333.611986,333.611986,333.611986,333.611986,333.611986,333.611986,333.611986,333.611986,333.611986,
   ** Warning ** SimHVAC: Maximum iterations (20) exceeded for all HVAC loops, at ANNUAL, 01/02 17:00 - 17:15
   **   ~~~   ** The solution for one or more of the Air Loop HVAC systems did not appear to converge
   **   ~~~   ** Air System Named = CENTRAL SYSTEM did not converge for mass flow rate
   **   ~~~   ** Check values should be zero. Most Recent values listed first.
   **   ~~~   ** Demand-to-Supply interface mass flow rate check value iteration history trace: 9.064334E-002,9.064334E-002,9.064334E-002,9.064334E-002,9.064334E-002,9.064334E-002,9.064334E-002,9.064334E-002,9.064334E-002,9.064334E-002,
   **   ~~~   ** Supply-to-demand interface deck 1 mass flow rate check value iteration history trace: 9.064334E-002,9.064334E-002,9.064334E-002,9.064334E-002,9.064334E-002,9.064334E-002,9.064334E-002,9.064334E-002,9.064334E-002,9.064334E-002,
   **   ~~~   ** Air System Named = CENTRAL SYSTEM did not converge for energy
   **   ~~~   ** Check values should be zero. Most Recent values listed first.
   **   ~~~   ** Demand-to-Supply interface energy check value iteration history trace: 1795.760501,1795.760501,1795.760500,1795.760500,1795.760500,1795.760500,1795.760500,1795.760500,1795.760500,1795.760500,
   **   ~~~   ** Supply-to-demand interface deck 1 energy check value iteration history trace: 2751.949782,2751.949782,2751.949782,2751.949782,2751.949782,2751.949781,2751.949781,2751.949781,2751.949781,2751.949781,
   ** Warning ** SimHVAC: Maximum iterations (20) exceeded for all HVAC loops, at ANNUAL, 01/07 11:45 - 12:00
   **   ~~~   ** The solution for one or more of the Air Loop HVAC systems did not appear to converge
   **   ~~~   ** Air System Named = CENTRAL SYSTEM did not converge for mass flow rate
   **   ~~~   ** Check values should be zero. Most Recent values listed first.
   **   ~~~   ** Demand-to-Supply interface mass flow rate check value iteration history trace: 5.151168E-002,5.151168E-002,5.151168E-002,5.151168E-002,5.151168E-002,5.151168E-002,5.151168E-002,5.151168E-002,5.151168E-002,5.151168E-002,
   **   ~~~   ** Supply-to-demand interface deck 1 mass flow rate check value iteration history trace: 5.151168E-002,5.151168E-002,5.151168E-002,5.151168E-002,5.151168E-002,5.151168E-002,5.151168E-002,5.151168E-002,5.151168E-002,5.151168E-002,
   **   ~~~   ** Air System Named = CENTRAL SYSTEM did not converge for energy
   **   ~~~   ** Check values should be zero. Most Recent values listed first.
   **   ~~~   ** Demand-to-Supply interface energy check value iteration history trace: 1021.890364,1021.890364,1021.890364,1021.890364,1021.890364,1021.890364,1021.890364,1021.890364,1021.890364,1021.890364,
   **   ~~~   ** Supply-to-demand interface deck 1 energy check value iteration history trace: 1857.852695,1857.852695,1857.852695,1857.852695,1857.852695,1857.852695,1857.852695,1857.852695,1857.852694,1857.852694,
   ** Warning ** SimHVAC: Maximum iterations (20) exceeded for all HVAC loops, at ANNUAL, 01/12 10:58 - 11:00
   **   ~~~   ** The solution for one or more of the Air Loop HVAC systems did not appear to converge
   **   ~~~   ** Air System Named = CENTRAL SYSTEM did not converge for mass flow rate
   **   ~~~   ** Check values should be zero. Most Recent values listed first.
   **   ~~~   ** Demand-to-Supply interface mass flow rate check value iteration history trace: 8.625754E-002,8.625754E-002,8.625754E-002,8.625754E-002,8.625754E-002,8.625754E-002,8.625754E-002,8.625754E-002,8.625754E-002,8.625754E-002,
   **   ~~~   ** Supply-to-demand interface deck 1 mass flow rate check value iteration history trace: 8.625754E-002,8.625754E-002,8.625754E-002,8.625754E-002,8.625754E-002,8.625754E-002,8.625754E-002,8.625754E-002,8.625754E-002,8.625754E-002,
   **   ~~~   ** Air System Named = CENTRAL SYSTEM did not converge for energy
   **   ~~~   ** Check values should be zero. Most Recent values listed first.
   **   ~~~   ** Demand-to-Supply interface energy check value iteration history trace: 1710.063328,1710.063328,1710.063328,1710.063328,1710.063328,1710.063328,1710.063328,1710.063328,1710.063328,1710.063328,
   **   ~~~   ** Supply-to-demand interface deck 1 energy check value iteration history trace: 2722.739627,2722.739627,2722.739626,2722.739626,2722.739626,2722.739626,2722.739626,2722.739626,2722.739626,2722.739625,
   ** Warning ** SimHVAC: Maximum iterations (20) exceeded for all HVAC loops, at ANNUAL, 01/16 10:04 - 10:06
   **   ~~~   ** The solution for one or more of the Air Loop HVAC systems did not appear to converge
   **   ~~~   ** Air System Named = CENTRAL SYSTEM did not converge for mass flow rate
   **   ~~~   ** Check values should be zero. Most Recent values listed first.
   **   ~~~   ** Demand-to-Supply interface mass flow rate check value iteration history trace: 9.618839E-002,9.618839E-002,9.618839E-002,9.618839E-002,9.618839E-002,9.618839E-002,9.618839E-002,9.618839E-002,9.618839E-002,9.618839E-002,
   **   ~~~   ** Supply-to-demand interface deck 1 mass flow rate check value iteration history trace: 9.618839E-002,9.618839E-002,9.618839E-002,9.618839E-002,9.618839E-002,9.618839E-002,9.618839E-002,9.618839E-002,9.618839E-002,9.618839E-002,
   **   ~~~   ** Air System Named = CENTRAL SYSTEM did not converge for energy
   **   ~~~   ** Check values should be zero. Most Recent values listed first.
   **   ~~~   ** Demand-to-Supply interface energy check value iteration history trace: 1906.202082,1906.202081,1906.202081,1906.202081,1906.202081,1906.202081,1906.202081,1906.202081,1906.202081,1906.202080,
   **   ~~~   ** Supply-to-demand interface deck 1 energy check value iteration history trace: 2932.797857,2932.797857,2932.797857,2932.797857,2932.797857,2932.797856,2932.797856,2932.797856,2932.797856,2932.797856,
   ** Warning ** SimHVAC: Maximum iterations (20) exceeded for all HVAC loops, at ANNUAL, 01/21 10:15 - 10:30
   **   ~~~   ** The solution for one or more of the Air Loop HVAC systems did not appear to converge
   **   ~~~   ** Air System Named = CENTRAL SYSTEM did not converge for mass flow rate
   **   ~~~   ** Check values should be zero. Most Recent values listed first.
   **   ~~~   ** Demand-to-Supply interface mass flow rate check value iteration history trace: 9.499013E-002,9.499013E-002,9.499013E-002,9.499013E-002,9.499013E-002,9.499013E-002,9.499013E-002,9.499013E-002,9.499013E-002,9.499013E-002,
   **   ~~~   ** Supply-to-demand interface deck 1 mass flow rate check value iteration history trace: 9.499013E-002,9.499013E-002,9.499013E-002,9.499013E-002,9.499013E-002,9.499013E-002,9.499013E-002,9.499013E-002,9.499013E-002,9.499013E-002,
   **   ~~~   ** Air System Named = CENTRAL SYSTEM did not converge for energy
   **   ~~~   ** Check values should be zero. Most Recent values listed first.
   **   ~~~   ** Demand-to-Supply interface energy check value iteration history trace: 1882.405035,1882.405035,1882.405035,1882.405035,1882.405035,1882.405034,1882.405034,1882.405034,1882.405034,1882.405034,
   **   ~~~   ** Supply-to-demand interface deck 1 energy check value iteration history trace: 2884.952051,2884.952050,2884.952050,2884.952050,2884.952050,2884.952050,2884.952050,2884.952049,2884.952049,2884.952049,
   ** Warning ** SimHVAC: Maximum iterations (20) exceeded for all HVAC loops, at ANNUAL, 01/30 10:45 - 11:00
   **   ~~~   ** The solution for one or more of the Air Loop HVAC systems did not appear to converge
   **   ~~~   ** Air System Named = CENTRAL SYSTEM did not converge for mass flow rate
   **   ~~~   ** Check values should be zero. Most Recent values listed first.
   **   ~~~   ** Demand-to-Supply interface mass flow rate check value iteration history trace: 5.893592E-002,5.893592E-002,5.893592E-002,5.893592E-002,5.893592E-002,5.893592E-002,5.893592E-002,5.893592E-002,5.893592E-002,5.893592E-002,
   **   ~~~   ** Supply-to-demand interface deck 1 mass flow rate check value iteration history trace: 5.893592E-002,5.893592E-002,5.893592E-002,5.893592E-002,5.893592E-002,5.893592E-002,5.893592E-002,5.893592E-002,5.893592E-002,5.893592E-002,
   **   ~~~   ** Air System Named = CENTRAL SYSTEM did not converge for energy
   **   ~~~   ** Check values should be zero. Most Recent values listed first.
   **   ~~~   ** Demand-to-Supply interface energy check value iteration history trace: 1163.581095,1163.581095,1163.581095,1163.581095,1163.581094,1163.581094,1163.581094,1163.581094,1163.581094,1163.581093,
   **   ~~~   ** Supply-to-demand interface deck 1 energy check value iteration history trace: 2132.705020,2132.705019,2132.705019,2132.705018,2132.705018,2132.705018,2132.705017,2132.705017,2132.705016,2132.705016,
   **   ~~~   ** Node named ZONE INLET NODE shows oscillating temperatures across iterations with a repeated value of 36.012406
   **   ~~~   ** Node named ZONE INLET NODE temperature [C] iteration history trace (most recent first): 36.012406,36.012406,36.012406,36.012405,36.012405,36.012405,36.012404,36.012404,36.012404,36.012403,
   ** Warning ** SimHVAC: Maximum iterations (20) exceeded for all HVAC loops, at ANNUAL, 01/30 10:50 - 10:55
   **   ~~~   ** The solution for one or more of the Air Loop HVAC systems did not appear to converge
   **   ~~~   ** Air System Named = CENTRAL SYSTEM did not converge for mass flow rate
   **   ~~~   ** Check values should be zero. Most Recent values listed first.
   **   ~~~   ** Demand-to-Supply interface mass flow rate check value iteration history trace: 5.922869E-002,5.922869E-002,5.922869E-002,5.922869E-002,5.922869E-002,5.922869E-002,5.922869E-002,5.922869E-002,5.922869E-002,5.922869E-002,
   **   ~~~   ** Supply-to-demand interface deck 1 mass flow rate check value iteration history trace: 5.922869E-002,5.922869E-002,5.922869E-002,5.922869E-002,5.922869E-002,5.922869E-002,5.922869E-002,5.922869E-002,5.922869E-002,5.922869E-002,
   **   ~~~   ** Air System Named = CENTRAL SYSTEM did not converge for energy
   **   ~~~   ** Check values should be zero. Most Recent values listed first.
   **   ~~~   ** Demand-to-Supply interface energy check value iteration history trace: 1173.913047,1173.913047,1173.913047,1173.913046,1173.913046,1173.913046,1173.913046,1173.913046,1173.913045,1173.913045,
   **   ~~~   ** Supply-to-demand interface deck 1 energy check value iteration history trace: 2147.530787,2147.530787,2147.530787,2147.530786,2147.530786,2147.530785,2147.530785,2147.530785,2147.530784,2147.530784,
   **   ~~~   ** Node named ZONE INLET NODE shows oscillating temperatures across iterations with a repeated value of 36.083506
   **   ~~~   ** Node named ZONE INLET NODE temperature [C] iteration history trace (most recent first): 36.083506,36.083505,36.083505,36.083505,36.083504,36.083504,36.083504,36.083503,36.083503,36.083503,
   ** Warning ** SimHVAC: Maximum iterations (20) exceeded for all HVAC loops, at ANNUAL, 02/01 10:45 - 10:47
   **   ~~~   ** The solution for one or more of the Air Loop HVAC systems did not appear to converge
   **   ~~~   ** Air System Named = CENTRAL SYSTEM did not converge for mass flow rate
   **   ~~~   ** Check values should be zero. Most Recent values listed first.
   **   ~~~   ** Demand-to-Supply interface mass flow rate check value iteration history trace: 8.716452E-002,8.716452E-002,8.716452E-002,8.716452E-002,8.716452E-002,8.716452E-002,8.716452E-002,8.716452E-002,8.716452E-002,8.716452E-002,
   **   ~~~   ** Supply-to-demand interface deck 1 mass flow rate check value iteration history trace: 8.716452E-002,8.716452E-002,8.716452E-002,8.716452E-002,8.716452E-002,8.716452E-002,8.716452E-002,8.716452E-002,8.716452E-002,8.716452E-002,
   **   ~~~   ** Air System Named = CENTRAL SYSTEM did not converge for energy
   **   ~~~   ** Check values should be zero. Most Recent values listed first.
   **   ~~~   ** Demand-to-Supply interface energy check value iteration history trace: 1723.781355,1723.781355,1723.781355,1723.781355,1723.781355,1723.781355,1723.781355,1723.781354,1723.781354,1723.781354,
   **   ~~~   ** Supply-to-demand interface deck 1 energy check value iteration history trace: 2730.694919,2730.694919,2730.694919,2730.694919,2730.694919,2730.694919,2730.694918,2730.694918,2730.694918,2730.694918,
   ************* Simulation Error Summary *************
   ** Warning ** The following Report Variables were requested but not generated -- check.rdd file
   **   ~~~   ** Either the IDF did not contain these elements, the variable name is misspelled,
   **   ~~~   ** or the requested variable is an advanced output which requires Output : Diagnostics, DisplayAdvancedReportVariables;
   ************* Key=*, VarName=BASEBOARD TOTAL HEATING ENERGY, Frequency=
   ************* Key=*, VarName=WATER HEATER NATURALGAS ENERGY, Frequency=
   ************* Key=*, VarName=COOLING COIL TOTAL HEATING ENERGY, Frequency=
   ************* There are 34 unused schedules in input.
   ************* There are 388 unused week schedules in input.
   ************* There are 396 unused day schedules in input.
   ************* Use Output:Diagnostics,DisplayUnusedSchedules; to see them.
   *************
   ************* ===== Recurring Error Summary =====
   ************* The following recurring error messages occurred.
   *************
   *************  ** Warning ** "TOTAL HOT WATER LOAD" - Target water temperature should be less than or equal to the hot water temperature error continues...
   *************  **   ~~~   **   This error occurred 222825 total times;
   *************  **   ~~~   **   during Warmup 0 times;
   *************  **   ~~~   **   during Sizing 0 times.
   *************  **   ~~~   **   Max=12.027483  Min=1.109944E-003
   *************
   *************  ** Warning ** SimHVAC: Exceeding Maximum iterations for all HVAC loops, during ANNUAL continues
   *************  **   ~~~   **   This error occurred 36 total times;
   *************  **   ~~~   **   during Warmup 0 times;
   *************  **   ~~~   **   during Sizing 0 times.
   *************
   *************
   ************* ===== Final Error Summary =====
   ************* The following error categories occurred.  Consider correcting or noting.
   ************* Nominally Unused Constructions
   ************* ..The nominally unused constructions warning is provided to alert you to potential conditions that can cause
   ************* ..extra time during simulation. Each construction is calculated by the algorithm indicated in the HeatBalanceAlgorithm
   ************* ..object. You may remove the constructions indicated (when you use the DisplayExtraWarnings option).
   *************
   ************* EnergyPlus Warmup Error Summary. During Warmup: 1 Warning; 0 Severe Errors.
   ************* EnergyPlus Sizing Error Summary. During Sizing: 4 Warning; 0 Severe Errors.
   ************* EnergyPlus Completed Successfully-- 222893 Warning; 0 Severe Errors; Elapsed Time=00hr 01min 50.61sec
