Program Version,EnergyPlus, Version 22.2.0-c249759bad, YMD=2023.09.01 19:31,
   ************* Beginning Zone Sizing Calculations
   ** Warning ** ProcessScheduleInput: Schedule:Constant="ALWAYS ON DISCRETE", Schedule Type Limits Name="ONOFF" not found -- will not be validated
   ** Warning ** Foundation:Kiva="KIVA FOUNDATION", no Interior Horizontal Insulation Material Name defined
   **   ~~~   ** Interior Horizontal Insulation Depth will not be used.
   ** Warning ** CheckUsedConstructions: There are 15 nominally unused constructions in input.
   **   ~~~   ** Each Unused construction is shown.
   ************* Construction=INTERIOR FLOOR
   ************* Construction=INTERIOR WINDOW
   ************* Construction=EXTERIOR DOOR
   ************* Construction=INTERIOR DOOR
   ************* Construction=GABLE CONSTRUCTION
   ************* Construction=CRAWL_FLOOR
   ************* Construction=INSULATED PIPE
   ************* Construction=PLAIN PIPE
   ************* Construction=TDD PIPE
   ************* Construction=TDD DOME
   ************* Construction=TDD DIFFUSER
   ************* Construction=CRAWL WALL
   ************* Construction=CEILING-FLOOR-LAYER
   ************* Construction=SLAB CONSTRUCTION W FULL R10 INSULATION
   ************* Construction=SLAB CONSTRUCTION W FULL R5 INSULATION
   ** Warning ** GetDXCoils: Coil:Heating:DX:SingleSpeed="DX_HEATING_COIL" curve values
   **   ~~~   ** ... Defrost Energy Input Ratio Function of Temperature Curve Name = DEFROSTEIR output is not equal to 1.0 (+ or - 10%) at rated conditions.
   **   ~~~   ** ... Curve output at rated conditions = 0.152
   ************* Beginning System Sizing Calculations
   ************* Beginning Plant Sizing Calculations
   ** Warning ** SizeDXCoil Coil:Cooling:DX:SingleSpeed DX_COOLING_COIL
   **   ~~~   ** ...Gross Rated Total Cooling Capacity [W] will be limited by the maximum rated volume flow per rated total capacity ratio.
   **   ~~~   ** ...DX coil volume flow rate ( m3/s ) = 0.428381
   **   ~~~   ** ...Requested capacity ( W ) = 6653.339
   **   ~~~   ** ...Requested flow/capacity ratio ( m3/s/W ) = 6.438E-005
   **   ~~~   ** ...Maximum flow/capacity ratio ( m3/s/W ) = 6.041E-005
   **   ~~~   ** ...Adjusted capacity ( W ) = 7091.233
   ** Warning ** SizeDXCoil Coil:Heating:DX:SingleSpeed DX_HEATING_COIL
   **   ~~~   ** ...Gross Rated Heating Capacity [W] will be limited by the maximum rated volume flow per rated total capacity ratio.
   **   ~~~   ** ...DX coil volume flow rate ( m3/s ) = 0.428381
   **   ~~~   ** ...Requested capacity ( W ) = 7091.233
   **   ~~~   ** ...Requested flow/capacity ratio ( m3/s/W ) = 6.041E-005
   **   ~~~   ** ...Maximum flow/capacity ratio ( m3/s/W ) = 6.041E-005
   **   ~~~   ** ...Adjusted capacity ( W ) = 7091.233
   ** Warning ** Coil:WaterHeating:AirToWaterHeatPump:Wrapped "HEAT PUMP WATER HEATER EVAPORATOR": Rated air volume flow rate per watt of rated total water heating capacity is out of range
   **   ~~~   ** Min Rated Vol Flow Per Watt=[4.027E-005], Rated Vol Flow Per Watt=[1.510E-004], Max Rated Vol Flow Per Watt=[8.056E-005]. See Input-Output Reference Manual for valid range.
   ************* SizeFan: : Potential issue with equipment sizing for Fan:OnOff HEAT PUMP WATER HEATER FAN
   **   ~~~   ** User-Specified Maximum Flow Rate [m3/s] = 0.22653
   **   ~~~   ** differs from Design Size Maximum Flow Rate [m3/s] = 7.55250E-002
   **   ~~~   ** This may, or may not, indicate mismatched component sizes.
   **   ~~~   ** Verify that the value entered is intended and is consistent with other components.
   ** Warning ** Water heater = WATER HEATER TANK:  Recovery Efficiency and Energy Factor could not be calculated during the test for standard ratings
   **   ~~~   ** Setpoint was never recovered and/or heater never turned on
   ** Warning ** Check input. Pump nominal power or motor efficiency is set to 0, for pump=MAINS PRESSURE
   ** Warning ** Output:Meter: invalid Key Name="ELECTRIC_RANGE:INTERIOREQUIPMENT:ELECTRICITY" - not found.
   ** Warning ** Output:Meter: invalid Key Name="ELECTRIC_DRYER:INTERIOREQUIPMENT:ELECTRICITY" - not found.
   ** Warning ** Output:Meter: invalid Key Name="HEATRECOVERY:ELECTRICITY" - not found.
   ** Warning ** Output:Meter: invalid Key Name="HEATING:NATURALGAS" - not found.
   ** Warning ** Output:Meter: invalid Key Name="WATERSYSTEMS:NATURALGAS" - not found.
   ** Warning ** Output:Meter: invalid Key Name="PROPANE:FACILITY" - not found.
   ** Warning ** Output:Meter: invalid Key Name="HEATING:PROPANE" - not found.
   ************* Testing Individual Branch Integrity
   ************* All Branches passed integrity testing
   ************* Testing Individual Supply Air Path Integrity
   ************* All Supply Air Paths passed integrity testing
   ************* Testing Individual Return Air Path Integrity
   ************* All Return Air Paths passed integrity testing
   ************* No node connection errors were found.
   ************* Beginning Simulation
   ** Warning ** AirflowNetwork::Solver::validate_distribution: Heat pump water heater is simulated along with an AirflowNetwork but is not included in the AirflowNetwork.
   ** Severe  ** CheckWarmupConvergence: Loads Initialization, Zone="LIVING" did not converge after 25 warmup days.
   **   ~~~   ** See Warmup Convergence Information in .eio file for details.
   **   ~~~   ** ...Environment(SizingPeriod)="EXTREME_WINTER"
   **   ~~~   ** ..Max Temp Comparison = 0.17 vs Temperature Convergence Tolerance=5.00E-002 - Fail Convergence
   **   ~~~   ** ..Min Temp Comparison = 1.02E-003 vs Temperature Convergence Tolerance=5.00E-002 - Pass Convergence
   **   ~~~   ** ..Max Heat Load Comparison = 8.8031E-002 vs Loads Convergence Tolerance=5.00E-002 - Fail Convergence
   **   ~~~   ** ..Max Cool Load Comparison = 5.2957E-002 vs Loads Convergence Tolerance=5.00E-002 - Fail Convergence
   ** Severe  ** CheckWarmupConvergence: Loads Initialization, Zone="ATTIC" did not converge after 25 warmup days.
   **   ~~~   ** ...Environment(SizingPeriod)="EXTREME_WINTER"
   **   ~~~   ** ..Max Temp Comparison = 0.17 vs Temperature Convergence Tolerance=5.00E-002 - Fail Convergence
   **   ~~~   ** ..Min Temp Comparison = 6.96E-002 vs Temperature Convergence Tolerance=5.00E-002 - Fail Convergence
   **   ~~~   ** ..Max Heat Load Comparison = 0.0000 vs Loads Convergence Tolerance=5.00E-002 - Pass Convergence
   **   ~~~   ** ..Max Cool Load Comparison = 0.0000 vs Loads Convergence Tolerance=5.00E-002 - Pass Convergence
   ** Warning ** CalcEquipmentFlowRates: "TOTAL HOT WATER LOAD" - Target water temperature is greater than the hot water temperature by (1.20 C)
   **   ~~~   **  Environment=EXTREME_WINTER, at Simulation time=01/20 06:00 - 06:15
   **   ~~~   ** ...target water temperature     = 53.33 C
   **   ~~~   ** ...hot water temperature        = 52.14 C
   **   ~~~   ** ...Target water temperature should be less than or equal to the hot water temperature. Verify temperature setpoints and schedules.
   ** Warning ** SimHVAC: Maximum iterations (20) exceeded for all HVAC loops, at EXTREME_SUMMER, 07/17 03:38 - 03:45
   **   ~~~   ** The solution for one or more of the Air Loop HVAC systems did not appear to converge
   **   ~~~   ** Air System Named = CENTRAL SYSTEM did not converge for mass flow rate
   **   ~~~   ** Check values should be zero. Most Recent values listed first.
   **   ~~~   ** Demand-to-Supply interface mass flow rate check value iteration history trace: 2.126654E-002,2.126654E-002,2.126654E-002,2.126654E-002,2.126654E-002,2.126654E-002,2.126654E-002,2.126654E-002,2.126654E-002,2.126654E-002,
   **   ~~~   ** Supply-to-demand interface deck 1 mass flow rate check value iteration history trace: 2.126654E-002,2.126654E-002,2.126654E-002,2.126654E-002,2.126654E-002,2.126654E-002,2.126654E-002,2.126654E-002,2.126654E-002,2.126654E-002,
   **   ~~~   ** Air System Named = CENTRAL SYSTEM did not converge for energy
   **   ~~~   ** Check values should be zero. Most Recent values listed first.
   **   ~~~   ** Demand-to-Supply interface energy check value iteration history trace: 526.208556,526.208556,526.208557,526.208557,526.208557,526.208557,526.208557,526.208557,526.208557,526.208558,
   **   ~~~   ** Supply-to-demand interface deck 1 energy check value iteration history trace: 280.639398,280.639398,280.639398,280.639399,280.639399,280.639399,280.639399,280.639399,280.639399,280.639399,
   ** Warning ** SimHVAC: Maximum iterations (20) exceeded for all HVAC loops, at ANNUAL, 01/25 12:00 - 12:02
   **   ~~~   ** The solution for one or more of the Air Loop HVAC systems did not appear to converge
   **   ~~~   ** Air System Named = CENTRAL SYSTEM did not converge for mass flow rate
   **   ~~~   ** Check values should be zero. Most Recent values listed first.
   **   ~~~   ** Demand-to-Supply interface mass flow rate check value iteration history trace: 7.682130E-002,7.682130E-002,7.682130E-002,7.682130E-002,7.682130E-002,7.682130E-002,7.682130E-002,7.682130E-002,7.682130E-002,7.682130E-002,
   **   ~~~   ** Supply-to-demand interface deck 1 mass flow rate check value iteration history trace: 7.682130E-002,7.682130E-002,7.682130E-002,7.682130E-002,7.682130E-002,7.682130E-002,7.682130E-002,7.682130E-002,7.682130E-002,7.682130E-002,
   **   ~~~   ** Air System Named = CENTRAL SYSTEM did not converge for energy
   **   ~~~   ** Check values should be zero. Most Recent values listed first.
   **   ~~~   ** Demand-to-Supply interface energy check value iteration history trace: 1522.383230,1522.383230,1522.383230,1522.383230,1522.383230,1522.383230,1522.383230,1522.383229,1522.383229,1522.383229,
   **   ~~~   ** Supply-to-demand interface deck 1 energy check value iteration history trace: 2302.992785,2302.992785,2302.992785,2302.992785,2302.992784,2302.992784,2302.992784,2302.992784,2302.992784,2302.992784,
   ** Warning ** SimHVAC: Maximum iterations (20) exceeded for all HVAC loops, at ANNUAL, 02/10 04:30 - 04:45
   **   ~~~   ** The solution for one or more of the Air Loop HVAC systems did not appear to converge
   **   ~~~   ** Air System Named = CENTRAL SYSTEM did not converge for mass flow rate
   **   ~~~   ** Check values should be zero. Most Recent values listed first.
   **   ~~~   ** Demand-to-Supply interface mass flow rate check value iteration history trace: 7.287919E-002,7.287919E-002,7.287919E-002,7.287919E-002,7.287919E-002,7.287919E-002,7.287919E-002,7.287919E-002,7.287919E-002,7.287919E-002,
   **   ~~~   ** Supply-to-demand interface deck 1 mass flow rate check value iteration history trace: 7.287919E-002,7.287919E-002,7.287919E-002,7.287919E-002,7.287919E-002,7.287919E-002,7.287919E-002,7.287919E-002,7.287919E-002,7.287919E-002,
   **   ~~~   ** Air System Named = CENTRAL SYSTEM did not converge for energy
   **   ~~~   ** Check values should be zero. Most Recent values listed first.
   **   ~~~   ** Demand-to-Supply interface energy check value iteration history trace: 1362.350851,1362.350851,1362.350851,1362.350851,1362.350851,1362.350851,1362.350850,1362.350850,1362.350850,1362.350850,
   **   ~~~   ** Supply-to-demand interface deck 1 energy check value iteration history trace: 2095.295731,2095.295730,2095.295730,2095.295730,2095.295730,2095.295730,2095.295730,2095.295730,2095.295730,2095.295729,
   ** Warning ** SimHVAC: Maximum iterations (20) exceeded for all HVAC loops, at ANNUAL, 02/18 08:45 - 08:47
   **   ~~~   ** The solution for one or more of the Air Loop HVAC systems did not appear to converge
   **   ~~~   ** Air System Named = CENTRAL SYSTEM did not converge for mass flow rate
   **   ~~~   ** Check values should be zero. Most Recent values listed first.
   **   ~~~   ** Demand-to-Supply interface mass flow rate check value iteration history trace: 7.806094E-002,7.806094E-002,7.806094E-002,7.806094E-002,7.806094E-002,7.806094E-002,7.806094E-002,7.806094E-002,7.806094E-002,7.806094E-002,
   **   ~~~   ** Supply-to-demand interface deck 1 mass flow rate check value iteration history trace: 7.806094E-002,7.806094E-002,7.806094E-002,7.806094E-002,7.806094E-002,7.806094E-002,7.806094E-002,7.806094E-002,7.806094E-002,7.806094E-002,
   **   ~~~   ** Air System Named = CENTRAL SYSTEM did not converge for energy
   **   ~~~   ** Check values should be zero. Most Recent values listed first.
   **   ~~~   ** Demand-to-Supply interface energy check value iteration history trace: 1546.861580,1546.861580,1546.861580,1546.861580,1546.861580,1546.861580,1546.861580,1546.861580,1546.861580,1546.861580,
   **   ~~~   ** Supply-to-demand interface deck 1 energy check value iteration history trace: 2625.125039,2625.125039,2625.125038,2625.125038,2625.125038,2625.125038,2625.125038,2625.125038,2625.125038,2625.125038,
   ** Warning ** SimHVAC: Maximum iterations (20) exceeded for all HVAC loops, at ANNUAL, 02/26 12:15 - 12:30
   **   ~~~   ** The solution for one or more of the Air Loop HVAC systems did not appear to converge
   **   ~~~   ** Air System Named = CENTRAL SYSTEM did not converge for mass flow rate
   **   ~~~   ** Check values should be zero. Most Recent values listed first.
   **   ~~~   ** Demand-to-Supply interface mass flow rate check value iteration history trace: 6.026246E-002,6.026246E-002,6.026246E-002,6.026246E-002,6.026246E-002,6.026246E-002,6.026246E-002,6.026246E-002,6.026246E-002,6.026246E-002,
   **   ~~~   ** Supply-to-demand interface deck 1 mass flow rate check value iteration history trace: 6.026246E-002,6.026246E-002,6.026246E-002,6.026246E-002,6.026246E-002,6.026246E-002,6.026246E-002,6.026246E-002,6.026246E-002,6.026246E-002,
   **   ~~~   ** Air System Named = CENTRAL SYSTEM did not converge for energy
   **   ~~~   ** Check values should be zero. Most Recent values listed first.
   **   ~~~   ** Demand-to-Supply interface energy check value iteration history trace: 1194.196299,1194.196299,1194.196299,1194.196299,1194.196299,1194.196299,1194.196299,1194.196299,1194.196299,1194.196299,
   **   ~~~   ** Supply-to-demand interface deck 1 energy check value iteration history trace: 2033.434856,2033.434855,2033.434855,2033.434855,2033.434855,2033.434855,2033.434855,2033.434855,2033.434855,2033.434855,
   ** Warning ** SimHVAC: Maximum iterations (20) exceeded for all HVAC loops, at ANNUAL, 03/11 08:30 - 08:32
   **   ~~~   ** The solution for one or more of the Air Loop HVAC systems did not appear to converge
   **   ~~~   ** Air System Named = CENTRAL SYSTEM did not converge for mass flow rate
   **   ~~~   ** Check values should be zero. Most Recent values listed first.
   **   ~~~   ** Demand-to-Supply interface mass flow rate check value iteration history trace: 7.455156E-002,7.455156E-002,7.455156E-002,7.455156E-002,7.455156E-002,7.455156E-002,7.455156E-002,7.455156E-002,7.455156E-002,7.455156E-002,
   **   ~~~   ** Supply-to-demand interface deck 1 mass flow rate check value iteration history trace: 7.455156E-002,7.455156E-002,7.455156E-002,7.455156E-002,7.455156E-002,7.455156E-002,7.455156E-002,7.455156E-002,7.455156E-002,7.455156E-002,
   **   ~~~   ** Air System Named = CENTRAL SYSTEM did not converge for energy
   **   ~~~   ** Check values should be zero. Most Recent values listed first.
   **   ~~~   ** Demand-to-Supply interface energy check value iteration history trace: 1477.334024,1477.334024,1477.334024,1477.334024,1477.334024,1477.334024,1477.334024,1477.334024,1477.334024,1477.334024,
   **   ~~~   ** Supply-to-demand interface deck 1 energy check value iteration history trace: 2503.109436,2503.109436,2503.109436,2503.109436,2503.109436,2503.109436,2503.109436,2503.109436,2503.109435,2503.109435,
   ** Warning ** SimHVAC: Maximum iterations (20) exceeded for all HVAC loops, at ANNUAL, 03/18 08:50 - 08:55
   **   ~~~   ** The solution for one or more of the Air Loop HVAC systems did not appear to converge
   **   ~~~   ** Air System Named = CENTRAL SYSTEM did not converge for mass flow rate
   **   ~~~   ** Check values should be zero. Most Recent values listed first.
   **   ~~~   ** Demand-to-Supply interface mass flow rate check value iteration history trace: 7.781449E-002,7.781449E-002,7.781449E-002,7.781449E-002,7.781449E-002,7.781449E-002,7.781449E-002,7.781449E-002,7.781449E-002,7.781449E-002,
   **   ~~~   ** Supply-to-demand interface deck 1 mass flow rate check value iteration history trace: 7.781449E-002,7.781449E-002,7.781449E-002,7.781449E-002,7.781449E-002,7.781449E-002,7.781449E-002,7.781449E-002,7.781449E-002,7.781449E-002,
   **   ~~~   ** Air System Named = CENTRAL SYSTEM did not converge for energy
   **   ~~~   ** Check values should be zero. Most Recent values listed first.
   **   ~~~   ** Demand-to-Supply interface energy check value iteration history trace: 1541.959296,1541.959296,1541.959296,1541.959296,1541.959296,1541.959296,1541.959296,1541.959296,1541.959296,1541.959295,
   **   ~~~   ** Supply-to-demand interface deck 1 energy check value iteration history trace: 2646.167998,2646.167998,2646.167998,2646.167997,2646.167997,2646.167997,2646.167997,2646.167997,2646.167997,2646.167997,
   ** Warning ** SimHVAC: Maximum iterations (20) exceeded for all HVAC loops, at ANNUAL, 03/27 07:45 - 08:00
   **   ~~~   ** The solution for one or more of the Air Loop HVAC systems did not appear to converge
   **   ~~~   ** Air System Named = CENTRAL SYSTEM did not converge for mass flow rate
   **   ~~~   ** Check values should be zero. Most Recent values listed first.
   **   ~~~   ** Demand-to-Supply interface mass flow rate check value iteration history trace: 6.712351E-002,6.712351E-002,6.712351E-002,6.712351E-002,6.712351E-002,6.712351E-002,6.712351E-002,6.712351E-002,6.712351E-002,6.712351E-002,
   **   ~~~   ** Supply-to-demand interface deck 1 mass flow rate check value iteration history trace: 6.712351E-002,6.712351E-002,6.712351E-002,6.712351E-002,6.712351E-002,6.712351E-002,6.712351E-002,6.712351E-002,6.712351E-002,6.712351E-002,
   **   ~~~   ** Air System Named = CENTRAL SYSTEM did not converge for energy
   **   ~~~   ** Check values should be zero. Most Recent values listed first.
   **   ~~~   ** Demand-to-Supply interface energy check value iteration history trace: 1330.058227,1330.058227,1330.058227,1330.058227,1330.058227,1330.058227,1330.058227,1330.058227,1330.058227,1330.058227,
   **   ~~~   ** Supply-to-demand interface deck 1 energy check value iteration history trace: 2245.232449,2245.232449,2245.232449,2245.232449,2245.232449,2245.232449,2245.232449,2245.232449,2245.232448,2245.232448,
   ** Warning ** SimHVAC: Maximum iterations (20) exceeded for all HVAC loops, at ANNUAL, 10/27 11:00 - 11:15
   **   ~~~   ** The solution for one or more of the Air Loop HVAC systems did not appear to converge
   **   ~~~   ** Air System Named = CENTRAL SYSTEM did not converge for mass flow rate
   **   ~~~   ** Check values should be zero. Most Recent values listed first.
   **   ~~~   ** Demand-to-Supply interface mass flow rate check value iteration history trace: 1.649483E-002,1.649483E-002,1.649483E-002,1.649483E-002,1.649483E-002,1.649483E-002,1.649483E-002,1.649483E-002,1.649483E-002,1.649483E-002,
   **   ~~~   ** Supply-to-demand interface deck 1 mass flow rate check value iteration history trace: 1.649483E-002,1.649483E-002,1.649483E-002,1.649483E-002,1.649483E-002,1.649483E-002,1.649483E-002,1.649483E-002,1.649483E-002,1.649483E-002,
   **   ~~~   ** Air System Named = CENTRAL SYSTEM did not converge for energy
   **   ~~~   ** Check values should be zero. Most Recent values listed first.
   **   ~~~   ** Demand-to-Supply interface energy check value iteration history trace: 326.852993,326.852993,326.852993,326.852993,326.852993,326.852993,326.852993,326.852993,326.852993,326.852993,
   **   ~~~   ** Supply-to-demand interface deck 1 energy check value iteration history trace: 577.509513,577.509513,577.509513,577.509513,577.509513,577.509513,577.509513,577.509513,577.509513,577.509513,
   ** Warning ** SimHVAC: Maximum iterations (20) exceeded for all HVAC loops, at ANNUAL, 10/31 18:00 - 18:15
   **   ~~~   ** The solution for one or more of the Air Loop HVAC systems did not appear to converge
   **   ~~~   ** Air System Named = CENTRAL SYSTEM did not converge for mass flow rate
   **   ~~~   ** Check values should be zero. Most Recent values listed first.
   **   ~~~   ** Demand-to-Supply interface mass flow rate check value iteration history trace: 9.206306E-002,9.206306E-002,9.206306E-002,9.206306E-002,9.206306E-002,9.206306E-002,9.206306E-002,9.206306E-002,9.206306E-002,9.206306E-002,
   **   ~~~   ** Supply-to-demand interface deck 1 mass flow rate check value iteration history trace: 9.206306E-002,9.206306E-002,9.206306E-002,9.206306E-002,9.206306E-002,9.206306E-002,9.206306E-002,9.206306E-002,9.206306E-002,9.206306E-002,
   **   ~~~   ** Air System Named = CENTRAL SYSTEM did not converge for energy
   **   ~~~   ** Check values should be zero. Most Recent values listed first.
   **   ~~~   ** Demand-to-Supply interface energy check value iteration history trace: 2203.282027,2203.282027,2203.282027,2203.282027,2203.282027,2203.282027,2203.282027,2203.282028,2203.282028,2203.282028,
   **   ~~~   ** Supply-to-demand interface deck 1 energy check value iteration history trace: 1038.543646,1038.543647,1038.543647,1038.543647,1038.543647,1038.543647,1038.543647,1038.543647,1038.543647,1038.543647,
   ** Warning ** SimHVAC: Maximum iterations (20) exceeded for all HVAC loops, at ANNUAL, 10/31 21:00 - 21:15
   **   ~~~   ** The solution for one or more of the Air Loop HVAC systems did not appear to converge
   **   ~~~   ** Air System Named = CENTRAL SYSTEM did not converge for mass flow rate
   **   ~~~   ** Check values should be zero. Most Recent values listed first.
   **   ~~~   ** Demand-to-Supply interface mass flow rate check value iteration history trace: 0.122169,0.122169,0.122169,0.122169,0.122169,0.122169,0.122169,0.122169,0.122169,0.122169,
   **   ~~~   ** Supply-to-demand interface deck 1 mass flow rate check value iteration history trace: 0.122169,0.122169,0.122169,0.122169,0.122169,0.122169,0.122169,0.122169,0.122169,0.122169,
   **   ~~~   ** Air System Named = CENTRAL SYSTEM did not converge for energy
   **   ~~~   ** Check values should be zero. Most Recent values listed first.
   **   ~~~   ** Demand-to-Supply interface energy check value iteration history trace: 2943.693924,2943.693924,2943.693925,2943.693925,2943.693926,2943.693926,2943.693927,2943.693927,2943.693927,2943.693928,
   **   ~~~   ** Supply-to-demand interface deck 1 energy check value iteration history trace: 1387.075609,1387.075610,1387.075610,1387.075610,1387.075610,1387.075610,1387.075611,1387.075611,1387.075611,1387.075611,
   ** Warning ** SimHVAC: Maximum iterations (20) exceeded for all HVAC loops, at ANNUAL, 11/05 08:45 - 08:47
   **   ~~~   ** The solution for one or more of the Air Loop HVAC systems did not appear to converge
   **   ~~~   ** Air System Named = CENTRAL SYSTEM did not converge for mass flow rate
   **   ~~~   ** Check values should be zero. Most Recent values listed first.
   **   ~~~   ** Demand-to-Supply interface mass flow rate check value iteration history trace: 0.101842,0.101842,0.101842,0.101842,0.101842,0.101842,0.101842,0.101842,0.101842,0.101842,
   **   ~~~   ** Supply-to-demand interface deck 1 mass flow rate check value iteration history trace: 0.101842,0.101842,0.101842,0.101842,0.101842,0.101842,0.101842,0.101842,0.101842,0.101842,
   **   ~~~   ** Air System Named = CENTRAL SYSTEM did not converge for energy
   **   ~~~   ** Check values should be zero. Most Recent values listed first.
   **   ~~~   ** Demand-to-Supply interface energy check value iteration history trace: 2018.073706,2018.073706,2018.073706,2018.073706,2018.073705,2018.073705,2018.073705,2018.073705,2018.073705,2018.073705,
   **   ~~~   ** Supply-to-demand interface deck 1 energy check value iteration history trace: 3102.026813,3102.026813,3102.026813,3102.026813,3102.026813,3102.026812,3102.026812,3102.026812,3102.026812,3102.026811,
   ** Warning ** SimHVAC: Maximum iterations (20) exceeded for all HVAC loops, at ANNUAL, 11/25 09:04 - 09:06
   **   ~~~   ** The solution for one or more of the Air Loop HVAC systems did not appear to converge
   **   ~~~   ** Air System Named = CENTRAL SYSTEM did not converge for mass flow rate
   **   ~~~   ** Check values should be zero. Most Recent values listed first.
   **   ~~~   ** Demand-to-Supply interface mass flow rate check value iteration history trace: 6.939771E-002,6.939771E-002,6.939771E-002,6.939771E-002,6.939771E-002,6.939771E-002,6.939771E-002,6.939771E-002,6.939771E-002,6.939771E-002,
   **   ~~~   ** Supply-to-demand interface deck 1 mass flow rate check value iteration history trace: 6.939771E-002,6.939771E-002,6.939771E-002,6.939771E-002,6.939771E-002,6.939771E-002,6.939771E-002,6.939771E-002,6.939771E-002,6.939771E-002,
   **   ~~~   ** Air System Named = CENTRAL SYSTEM did not converge for energy
   **   ~~~   ** Check values should be zero. Most Recent values listed first.
   **   ~~~   ** Demand-to-Supply interface energy check value iteration history trace: 1369.830107,1369.830107,1369.830107,1369.830107,1369.830107,1369.830107,1369.830106,1369.830106,1369.830106,1369.830106,
   **   ~~~   ** Supply-to-demand interface deck 1 energy check value iteration history trace: 2409.893744,2409.893744,2409.893744,2409.893744,2409.893744,2409.893743,2409.893743,2409.893743,2409.893743,2409.893743,
   ** Warning ** SimHVAC: Maximum iterations (20) exceeded for all HVAC loops, at ANNUAL, 12/30 09:30 - 09:38
   **   ~~~   ** The solution for one or more of the Air Loop HVAC systems did not appear to converge
   **   ~~~   ** Air System Named = CENTRAL SYSTEM did not converge for mass flow rate
   **   ~~~   ** Check values should be zero. Most Recent values listed first.
   **   ~~~   ** Demand-to-Supply interface mass flow rate check value iteration history trace: 5.681222E-002,5.681222E-002,5.681222E-002,5.681222E-002,5.681222E-002,5.681222E-002,5.681222E-002,5.681222E-002,5.681222E-002,5.681222E-002,
   **   ~~~   ** Supply-to-demand interface deck 1 mass flow rate check value iteration history trace: 5.681222E-002,5.681222E-002,5.681222E-002,5.681222E-002,5.681222E-002,5.681222E-002,5.681222E-002,5.681222E-002,5.681222E-002,5.681222E-002,
   **   ~~~   ** Air System Named = CENTRAL SYSTEM did not converge for energy
   **   ~~~   ** Check values should be zero. Most Recent values listed first.
   **   ~~~   ** Demand-to-Supply interface energy check value iteration history trace: 1125.924236,1125.924236,1125.924236,1125.924236,1125.924236,1125.924236,1125.924236,1125.924236,1125.924235,1125.924235,
   **   ~~~   ** Supply-to-demand interface deck 1 energy check value iteration history trace: 1983.984267,1983.984267,1983.984267,1983.984267,1983.984267,1983.984267,1983.984266,1983.984266,1983.984266,1983.984266,
   ************* Simulation Error Summary *************
   ** Warning ** The following Report Variables were requested but not generated -- check.rdd file
   **   ~~~   ** Either the IDF did not contain these elements, the variable name is misspelled,
   **   ~~~   ** or the requested variable is an advanced output which requires Output : Diagnostics, DisplayAdvancedReportVariables;
   ************* Key=*, VarName=BASEBOARD TOTAL HEATING ENERGY, Frequency=
   ************* Key=*, VarName=WATER HEATER NATURALGAS ENERGY, Frequency=
   ************* Key=*, VarName=COOLING COIL TOTAL HEATING ENERGY, Frequency=
   ************* There are 34 unused schedules in input.
   ************* There are 388 unused week schedules in input.
   ************* There are 396 unused day schedules in input.
   ************* Use Output:Diagnostics,DisplayUnusedSchedules; to see them.
   *************
   ************* ===== Recurring Error Summary =====
   ************* The following recurring error messages occurred.
   *************
   *************  ** Warning ** "TOTAL HOT WATER LOAD" - Target water temperature should be less than or equal to the hot water temperature error continues...
   *************  **   ~~~   **   This error occurred 143411 total times;
   *************  **   ~~~   **   during Warmup 0 times;
   *************  **   ~~~   **   during Sizing 0 times.
   *************  **   ~~~   **   Max=9.114422  Min=1.337119E-003
   *************
   *************  ** Warning ** SimHVAC: Exceeding Maximum iterations for all HVAC loops, during ANNUAL continues
   *************  **   ~~~   **   This error occurred 1 total times;
   *************  **   ~~~   **   during Warmup 0 times;
   *************  **   ~~~   **   during Sizing 0 times.
   *************
   *************
   ************* ===== Final Error Summary =====
   ************* The following error categories occurred.  Consider correcting or noting.
   ************* Loads Initialization did not Converge
   ************* ..1) very high thermal mass such as very thick concrete (solution: increase max number of warmup
   ************* ..   days in the BUILDING object);
   ************* ..2) moderate mass and inadequate space conditioning such that the building keeps getting warmer
   ************* ..   and warmer on successive days (solution: add HVAC, check building thermal properties,
   ************* ..   check if infiltration is included, make sure HVAC properly controlled);
   ************* ..3) a soil layer modeled below the concrete slab - (solution remove this layer and read about
   ************* ..   ground temperatures in the Auxiliary Programs document).
   ************* ..4) unreasonable (too small) limits in the BUILDING object for temperature (.4 default) or
   ************* ..   loads tolerances (.04 default)
   ************* Nominally Unused Constructions
   ************* ..The nominally unused constructions warning is provided to alert you to potential conditions that can cause
   ************* ..extra time during simulation. Each construction is calculated by the algorithm indicated in the HeatBalanceAlgorithm
   ************* ..object. You may remove the constructions indicated (when you use the DisplayExtraWarnings option).
   *************
   ************* EnergyPlus Warmup Error Summary. During Warmup: 1 Warning; 2 Severe Errors.
   ************* EnergyPlus Sizing Error Summary. During Sizing: 4 Warning; 0 Severe Errors.
   ************* EnergyPlus Completed Successfully-- 143445 Warning; 2 Severe Errors; Elapsed Time=00hr 01min 42.76sec
