Program Version,EnergyPlus, Version 22.2.0-c249759bad, YMD=2023.09.01 19:33,
   ************* Beginning Zone Sizing Calculations
   ** Warning ** ProcessScheduleInput: Schedule:Constant="ALWAYS ON DISCRETE", Schedule Type Limits Name="ONOFF" not found -- will not be validated
   ** Warning ** Foundation:Kiva="KIVA FOUNDATION", no Interior Horizontal Insulation Material Name defined
   **   ~~~   ** Interior Horizontal Insulation Depth will not be used.
   ** Warning ** CheckUsedConstructions: There are 15 nominally unused constructions in input.
   **   ~~~   ** Each Unused construction is shown.
   ************* Construction=INTERIOR FLOOR
   ************* Construction=INTERIOR WINDOW
   ************* Construction=EXTERIOR DOOR
   ************* Construction=INTERIOR DOOR
   ************* Construction=GABLE CONSTRUCTION
   ************* Construction=CRAWL_FLOOR
   ************* Construction=INSULATED PIPE
   ************* Construction=PLAIN PIPE
   ************* Construction=TDD PIPE
   ************* Construction=TDD DOME
   ************* Construction=TDD DIFFUSER
   ************* Construction=CRAWL WALL
   ************* Construction=CEILING-FLOOR-LAYER
   ************* Construction=SLAB CONSTRUCTION W FULL R10 INSULATION
   ************* Construction=SLAB CONSTRUCTION W FULL R5 INSULATION
   ** Warning ** GetDXCoils: Coil:Heating:DX:SingleSpeed="DX_HEATING_COIL" curve values
   **   ~~~   ** ... Defrost Energy Input Ratio Function of Temperature Curve Name = DEFROSTEIR output is not equal to 1.0 (+ or - 10%) at rated conditions.
   **   ~~~   ** ... Curve output at rated conditions = 0.152
   ************* Beginning System Sizing Calculations
   ************* Beginning Plant Sizing Calculations
   ** Warning ** SizeDXCoil Coil:Cooling:DX:SingleSpeed DX_COOLING_COIL
   **   ~~~   ** ...Gross Rated Total Cooling Capacity [W] will be limited by the maximum rated volume flow per rated total capacity ratio.
   **   ~~~   ** ...DX coil volume flow rate ( m3/s ) = 0.580835
   **   ~~~   ** ...Requested capacity ( W ) = 9136.384
   **   ~~~   ** ...Requested flow/capacity ratio ( m3/s/W ) = 6.357E-005
   **   ~~~   ** ...Maximum flow/capacity ratio ( m3/s/W ) = 6.041E-005
   **   ~~~   ** ...Adjusted capacity ( W ) = 9614.882
   ** Warning ** SizeDXCoil Coil:Heating:DX:SingleSpeed DX_HEATING_COIL
   **   ~~~   ** ...Gross Rated Heating Capacity [W] will be limited by the maximum rated volume flow per rated total capacity ratio.
   **   ~~~   ** ...DX coil volume flow rate ( m3/s ) = 0.580835
   **   ~~~   ** ...Requested capacity ( W ) = 9614.882
   **   ~~~   ** ...Requested flow/capacity ratio ( m3/s/W ) = 6.041E-005
   **   ~~~   ** ...Maximum flow/capacity ratio ( m3/s/W ) = 6.041E-005
   **   ~~~   ** ...Adjusted capacity ( W ) = 9614.882
   ** Warning ** Coil:WaterHeating:AirToWaterHeatPump:Wrapped "HEAT PUMP WATER HEATER EVAPORATOR": Rated air volume flow rate per watt of rated total water heating capacity is out of range
   **   ~~~   ** Min Rated Vol Flow Per Watt=[4.027E-005], Rated Vol Flow Per Watt=[1.510E-004], Max Rated Vol Flow Per Watt=[8.056E-005]. See Input-Output Reference Manual for valid range.
   ************* SizeFan: : Potential issue with equipment sizing for Fan:OnOff HEAT PUMP WATER HEATER FAN
   **   ~~~   ** User-Specified Maximum Flow Rate [m3/s] = 0.22653
   **   ~~~   ** differs from Design Size Maximum Flow Rate [m3/s] = 7.55250E-002
   **   ~~~   ** This may, or may not, indicate mismatched component sizes.
   **   ~~~   ** Verify that the value entered is intended and is consistent with other components.
   ** Warning ** Water heater = WATER HEATER TANK:  Recovery Efficiency and Energy Factor could not be calculated during the test for standard ratings
   **   ~~~   ** Setpoint was never recovered and/or heater never turned on
   ** Warning ** Check input. Pump nominal power or motor efficiency is set to 0, for pump=MAINS PRESSURE
   ** Warning ** AirflowNetwork::Solver::validate_distribution: Heat pump water heater is simulated along with an AirflowNetwork but is not included in the AirflowNetwork.
   ** Warning ** Output:Meter: invalid Key Name="ELECTRIC_RANGE:INTERIOREQUIPMENT:ELECTRICITY" - not found.
   ** Warning ** Output:Meter: invalid Key Name="ELECTRIC_DRYER:INTERIOREQUIPMENT:ELECTRICITY" - not found.
   ** Warning ** Output:Meter: invalid Key Name="HEATRECOVERY:ELECTRICITY" - not found.
   ** Warning ** Output:Meter: invalid Key Name="HEATING:NATURALGAS" - not found.
   ** Warning ** Output:Meter: invalid Key Name="WATERSYSTEMS:NATURALGAS" - not found.
   ** Warning ** Output:Meter: invalid Key Name="PROPANE:FACILITY" - not found.
   ** Warning ** Output:Meter: invalid Key Name="HEATING:PROPANE" - not found.
   ************* Testing Individual Branch Integrity
   ************* All Branches passed integrity testing
   ************* Testing Individual Supply Air Path Integrity
   ************* All Supply Air Paths passed integrity testing
   ************* Testing Individual Return Air Path Integrity
   ************* All Return Air Paths passed integrity testing
   ************* No node connection errors were found.
   ************* Beginning Simulation
   ** Warning ** CalcEquipmentFlowRates: "TOTAL HOT WATER LOAD" - Target water temperature is greater than the hot water temperature by (0.49 C)
   **   ~~~   **  Environment=EXTREME_WINTER, at Simulation time=12/22 06:00 - 06:15
   **   ~~~   ** ...target water temperature     = 53.33 C
   **   ~~~   ** ...hot water temperature        = 52.84 C
   **   ~~~   ** ...Target water temperature should be less than or equal to the hot water temperature. Verify temperature setpoints and schedules.
   ** Warning ** SimHVAC: Maximum iterations (20) exceeded for all HVAC loops, at EXTREME_WINTER, 12/30 08:45 - 08:47
   **   ~~~   ** The solution for one or more of the Air Loop HVAC systems did not appear to converge
   **   ~~~   ** Air System Named = CENTRAL SYSTEM did not converge for mass flow rate
   **   ~~~   ** Check values should be zero. Most Recent values listed first.
   **   ~~~   ** Demand-to-Supply interface mass flow rate check value iteration history trace: 7.809747E-002,7.809747E-002,7.809747E-002,7.809747E-002,7.809747E-002,7.809747E-002,7.809747E-002,7.809747E-002,7.809747E-002,7.809747E-002,
   **   ~~~   ** Supply-to-demand interface deck 1 mass flow rate check value iteration history trace: 7.809747E-002,7.809747E-002,7.809747E-002,7.809747E-002,7.809747E-002,7.809747E-002,7.809747E-002,7.809747E-002,7.809747E-002,7.809747E-002,
   **   ~~~   ** Air System Named = CENTRAL SYSTEM did not converge for energy
   **   ~~~   ** Check values should be zero. Most Recent values listed first.
   **   ~~~   ** Demand-to-Supply interface energy check value iteration history trace: 1547.582485,1547.582485,1547.582485,1547.582485,1547.582484,1547.582484,1547.582484,1547.582484,1547.582484,1547.582484,
   **   ~~~   ** Supply-to-demand interface deck 1 energy check value iteration history trace: 2481.484293,2481.484293,2481.484293,2481.484293,2481.484293,2481.484293,2481.484292,2481.484292,2481.484292,2481.484292,
   ** Severe  ** CheckWarmupConvergence: Loads Initialization, Zone="LIVING" did not converge after 25 warmup days.
   **   ~~~   ** See Warmup Convergence Information in .eio file for details.
   **   ~~~   ** ...Environment(SizingPeriod)="EXTREME_SUMMER"
   **   ~~~   ** ..Max Temp Comparison = 3.84E-003 vs Temperature Convergence Tolerance=5.00E-002 - Pass Convergence
   **   ~~~   ** ..Min Temp Comparison = 5.23E-005 vs Temperature Convergence Tolerance=5.00E-002 - Pass Convergence
   **   ~~~   ** ..Max Heat Load Comparison = 8.3596E-002 vs Loads Convergence Tolerance=5.00E-002 - Fail Convergence
   **   ~~~   ** ..Max Cool Load Comparison = 7.7386E-004 vs Loads Convergence Tolerance=5.00E-002 - Pass Convergence
   ** Warning ** SimHVAC: Maximum iterations (20) exceeded for all HVAC loops, at ANNUAL, 01/02 20:00 - 20:15
   **   ~~~   ** The solution for one or more of the Air Loop HVAC systems did not appear to converge
   **   ~~~   ** Air System Named = CENTRAL SYSTEM did not converge for mass flow rate
   **   ~~~   ** Check values should be zero. Most Recent values listed first.
   **   ~~~   ** Demand-to-Supply interface mass flow rate check value iteration history trace: 7.656287E-002,7.656287E-002,7.656287E-002,7.656287E-002,7.656287E-002,7.656287E-002,7.656287E-002,7.656287E-002,7.656287E-002,7.656287E-002,
   **   ~~~   ** Supply-to-demand interface deck 1 mass flow rate check value iteration history trace: 7.656287E-002,7.656287E-002,7.656287E-002,7.656287E-002,7.656287E-002,7.656287E-002,7.656287E-002,7.656287E-002,7.656287E-002,7.656287E-002,
   **   ~~~   ** Air System Named = CENTRAL SYSTEM did not converge for energy
   **   ~~~   ** Check values should be zero. Most Recent values listed first.
   **   ~~~   ** Demand-to-Supply interface energy check value iteration history trace: 1513.073265,1513.073265,1513.073264,1513.073264,1513.073264,1513.073264,1513.073264,1513.073264,1513.073264,1513.073264,
   **   ~~~   ** Supply-to-demand interface deck 1 energy check value iteration history trace: 2412.426774,2412.426774,2412.426774,2412.426774,2412.426774,2412.426774,2412.426774,2412.426773,2412.426773,2412.426773,
   ** Warning ** SimHVAC: Maximum iterations (20) exceeded for all HVAC loops, at ANNUAL, 01/03 20:50 - 20:55
   **   ~~~   ** The solution for one or more of the Air Loop HVAC systems did not appear to converge
   **   ~~~   ** Air System Named = CENTRAL SYSTEM did not converge for mass flow rate
   **   ~~~   ** Check values should be zero. Most Recent values listed first.
   **   ~~~   ** Demand-to-Supply interface mass flow rate check value iteration history trace: 8.252565E-002,8.252565E-002,8.252565E-002,8.252565E-002,8.252565E-002,8.252565E-002,8.252565E-002,8.252565E-002,8.252565E-002,8.252565E-002,
   **   ~~~   ** Supply-to-demand interface deck 1 mass flow rate check value iteration history trace: 8.252565E-002,8.252565E-002,8.252565E-002,8.252565E-002,8.252565E-002,8.252565E-002,8.252565E-002,8.252565E-002,8.252565E-002,8.252565E-002,
   **   ~~~   ** Air System Named = CENTRAL SYSTEM did not converge for energy
   **   ~~~   ** Check values should be zero. Most Recent values listed first.
   **   ~~~   ** Demand-to-Supply interface energy check value iteration history trace: 1634.046099,1634.046099,1634.046099,1634.046099,1634.046099,1634.046099,1634.046099,1634.046098,1634.046098,1634.046098,
   **   ~~~   ** Supply-to-demand interface deck 1 energy check value iteration history trace: 2548.610572,2548.610572,2548.610572,2548.610571,2548.610571,2548.610571,2548.610571,2548.610571,2548.610571,2548.610571,
   ** Warning ** SimHVAC: Maximum iterations (20) exceeded for all HVAC loops, at ANNUAL, 01/07 10:30 - 10:32
   **   ~~~   ** The solution for one or more of the Air Loop HVAC systems did not appear to converge
   **   ~~~   ** Air System Named = CENTRAL SYSTEM did not converge for mass flow rate
   **   ~~~   ** Check values should be zero. Most Recent values listed first.
   **   ~~~   ** Demand-to-Supply interface mass flow rate check value iteration history trace: 5.949115E-002,5.949115E-002,5.949115E-002,5.949115E-002,5.949115E-002,5.949115E-002,5.949115E-002,5.949115E-002,5.949115E-002,5.949115E-002,
   **   ~~~   ** Supply-to-demand interface deck 1 mass flow rate check value iteration history trace: 5.949115E-002,5.949115E-002,5.949115E-002,5.949115E-002,5.949115E-002,5.949115E-002,5.949115E-002,5.949115E-002,5.949115E-002,5.949115E-002,
   **   ~~~   ** Air System Named = CENTRAL SYSTEM did not converge for energy
   **   ~~~   ** Check values should be zero. Most Recent values listed first.
   **   ~~~   ** Demand-to-Supply interface energy check value iteration history trace: 1178.930620,1178.930620,1178.930620,1178.930619,1178.930619,1178.930619,1178.930619,1178.930619,1178.930619,1178.930619,
   **   ~~~   ** Supply-to-demand interface deck 1 energy check value iteration history trace: 2129.761615,2129.761615,2129.761615,2129.761615,2129.761615,2129.761615,2129.761615,2129.761615,2129.761615,2129.761615,
   ** Warning ** SimHVAC: Maximum iterations (20) exceeded for all HVAC loops, at ANNUAL, 01/07 10:45 - 11:00
   **   ~~~   ** The solution for one or more of the Air Loop HVAC systems did not appear to converge
   **   ~~~   ** Air System Named = CENTRAL SYSTEM did not converge for mass flow rate
   **   ~~~   ** Check values should be zero. Most Recent values listed first.
   **   ~~~   ** Demand-to-Supply interface mass flow rate check value iteration history trace: 5.701865E-002,5.701865E-002,5.701865E-002,5.701865E-002,5.701865E-002,5.701865E-002,5.701865E-002,5.701865E-002,5.701865E-002,5.701865E-002,
   **   ~~~   ** Supply-to-demand interface deck 1 mass flow rate check value iteration history trace: 5.701865E-002,5.701865E-002,5.701865E-002,5.701865E-002,5.701865E-002,5.701865E-002,5.701865E-002,5.701865E-002,5.701865E-002,5.701865E-002,
   **   ~~~   ** Air System Named = CENTRAL SYSTEM did not converge for energy
   **   ~~~   ** Check values should be zero. Most Recent values listed first.
   **   ~~~   ** Demand-to-Supply interface energy check value iteration history trace: 1129.525312,1129.525312,1129.525312,1129.525312,1129.525312,1129.525312,1129.525312,1129.525312,1129.525312,1129.525312,
   **   ~~~   ** Supply-to-demand interface deck 1 energy check value iteration history trace: 2052.666648,2052.666648,2052.666648,2052.666648,2052.666647,2052.666647,2052.666647,2052.666647,2052.666647,2052.666647,
   ** Warning ** SimHVAC: Maximum iterations (20) exceeded for all HVAC loops, at ANNUAL, 01/22 04:25 - 04:30
   **   ~~~   ** The solution for one or more of the Air Loop HVAC systems did not appear to converge
   **   ~~~   ** Air System Named = CENTRAL SYSTEM did not converge for mass flow rate
   **   ~~~   ** Check values should be zero. Most Recent values listed first.
   **   ~~~   ** Demand-to-Supply interface mass flow rate check value iteration history trace: 5.277192E-002,5.277192E-002,5.277192E-002,5.277192E-002,5.277192E-002,5.277192E-002,5.277192E-002,5.277192E-002,5.277192E-002,5.277192E-002,
   **   ~~~   ** Supply-to-demand interface deck 1 mass flow rate check value iteration history trace: 5.277192E-002,5.277192E-002,5.277192E-002,5.277192E-002,5.277192E-002,5.277192E-002,5.277192E-002,5.277192E-002,5.277192E-002,5.277192E-002,
   **   ~~~   ** Air System Named = CENTRAL SYSTEM did not converge for energy
   **   ~~~   ** Check values should be zero. Most Recent values listed first.
   **   ~~~   ** Demand-to-Supply interface energy check value iteration history trace: 979.888605,979.888605,979.888605,979.888605,979.888605,979.888605,979.888605,979.888605,979.888605,979.888605,
   **   ~~~   ** Supply-to-demand interface deck 1 energy check value iteration history trace: 1767.927718,1767.927718,1767.927718,1767.927718,1767.927718,1767.927718,1767.927718,1767.927718,1767.927718,1767.927718,
   ** Warning ** SimHVAC: Maximum iterations (20) exceeded for all HVAC loops, at ANNUAL, 01/28 04:30 - 04:45
   **   ~~~   ** The solution for one or more of the Air Loop HVAC systems did not appear to converge
   **   ~~~   ** Air System Named = CENTRAL SYSTEM did not converge for mass flow rate
   **   ~~~   ** Check values should be zero. Most Recent values listed first.
   **   ~~~   ** Demand-to-Supply interface mass flow rate check value iteration history trace: 5.591506E-002,5.591506E-002,5.591506E-002,5.591506E-002,5.591506E-002,5.591506E-002,5.591506E-002,5.591506E-002,5.591506E-002,5.591506E-002,
   **   ~~~   ** Supply-to-demand interface deck 1 mass flow rate check value iteration history trace: 5.591506E-002,5.591506E-002,5.591506E-002,5.591506E-002,5.591506E-002,5.591506E-002,5.591506E-002,5.591506E-002,5.591506E-002,5.591506E-002,
   **   ~~~   ** Air System Named = CENTRAL SYSTEM did not converge for energy
   **   ~~~   ** Check values should be zero. Most Recent values listed first.
   **   ~~~   ** Demand-to-Supply interface energy check value iteration history trace: 1041.018218,1041.018218,1041.018218,1041.018218,1041.018218,1041.018218,1041.018218,1041.018218,1041.018218,1041.018218,
   **   ~~~   ** Supply-to-demand interface deck 1 energy check value iteration history trace: 1848.418947,1848.418947,1848.418947,1848.418946,1848.418946,1848.418946,1848.418946,1848.418946,1848.418946,1848.418946,
   ** Warning ** SimHVAC: Maximum iterations (20) exceeded for all HVAC loops, at ANNUAL, 02/05 04:00 - 04:15
   **   ~~~   ** The solution for one or more of the Air Loop HVAC systems did not appear to converge
   **   ~~~   ** Air System Named = CENTRAL SYSTEM did not converge for mass flow rate
   **   ~~~   ** Check values should be zero. Most Recent values listed first.
   **   ~~~   ** Demand-to-Supply interface mass flow rate check value iteration history trace: 5.491048E-002,5.491048E-002,5.491048E-002,5.491048E-002,5.491048E-002,5.491048E-002,5.491048E-002,5.491048E-002,5.491048E-002,5.491048E-002,
   **   ~~~   ** Supply-to-demand interface deck 1 mass flow rate check value iteration history trace: 5.491048E-002,5.491048E-002,5.491048E-002,5.491048E-002,5.491048E-002,5.491048E-002,5.491048E-002,5.491048E-002,5.491048E-002,5.491048E-002,
   **   ~~~   ** Air System Named = CENTRAL SYSTEM did not converge for energy
   **   ~~~   ** Check values should be zero. Most Recent values listed first.
   **   ~~~   ** Demand-to-Supply interface energy check value iteration history trace: 1015.690327,1015.690327,1015.690327,1015.690327,1015.690327,1015.690327,1015.690327,1015.690327,1015.690326,1015.690326,
   **   ~~~   ** Supply-to-demand interface deck 1 energy check value iteration history trace: 1803.612602,1803.612602,1803.612602,1803.612602,1803.612602,1803.612602,1803.612602,1803.612602,1803.612602,1803.612602,
   ** Warning ** SimHVAC: Maximum iterations (20) exceeded for all HVAC loops, at ANNUAL, 02/07 09:00 - 09:05
   **   ~~~   ** The solution for one or more of the Air Loop HVAC systems did not appear to converge
   **   ~~~   ** Air System Named = CENTRAL SYSTEM did not converge for mass flow rate
   **   ~~~   ** Check values should be zero. Most Recent values listed first.
   **   ~~~   ** Demand-to-Supply interface mass flow rate check value iteration history trace: 5.785711E-002,5.785711E-002,5.785711E-002,5.785711E-002,5.785711E-002,5.785711E-002,5.785711E-002,5.785711E-002,5.785711E-002,5.785711E-002,
   **   ~~~   ** Supply-to-demand interface deck 1 mass flow rate check value iteration history trace: 5.785711E-002,5.785711E-002,5.785711E-002,5.785711E-002,5.785711E-002,5.785711E-002,5.785711E-002,5.785711E-002,5.785711E-002,5.785711E-002,
   **   ~~~   ** Air System Named = CENTRAL SYSTEM did not converge for energy
   **   ~~~   ** Check values should be zero. Most Recent values listed first.
   **   ~~~   ** Demand-to-Supply interface energy check value iteration history trace: 1140.694385,1140.694385,1140.694385,1140.694385,1140.694385,1140.694385,1140.694385,1140.694385,1140.694384,1140.694384,
   **   ~~~   ** Supply-to-demand interface deck 1 energy check value iteration history trace: 2070.062422,2070.062422,2070.062422,2070.062422,2070.062422,2070.062422,2070.062422,2070.062422,2070.062422,2070.062422,
   ** Warning ** SimHVAC: Maximum iterations (20) exceeded for all HVAC loops, at ANNUAL, 02/08 05:23 - 05:30
   **   ~~~   ** The solution for one or more of the Air Loop HVAC systems did not appear to converge
   **   ~~~   ** Air System Named = CENTRAL SYSTEM did not converge for mass flow rate
   **   ~~~   ** Check values should be zero. Most Recent values listed first.
   **   ~~~   ** Demand-to-Supply interface mass flow rate check value iteration history trace: 5.045271E-002,5.045271E-002,5.045271E-002,5.045271E-002,5.045271E-002,5.045271E-002,5.045271E-002,5.045271E-002,5.045271E-002,5.045271E-002,
   **   ~~~   ** Supply-to-demand interface deck 1 mass flow rate check value iteration history trace: 5.045271E-002,5.045271E-002,5.045271E-002,5.045271E-002,5.045271E-002,5.045271E-002,5.045271E-002,5.045271E-002,5.045271E-002,5.045271E-002,
   **   ~~~   ** Air System Named = CENTRAL SYSTEM did not converge for energy
   **   ~~~   ** Check values should be zero. Most Recent values listed first.
   **   ~~~   ** Demand-to-Supply interface energy check value iteration history trace: 1005.375098,1005.375098,1005.375098,1005.375098,1005.375098,1005.375098,1005.375098,1005.375097,1005.375097,1005.375097,
   **   ~~~   ** Supply-to-demand interface deck 1 energy check value iteration history trace: 1812.933042,1812.933042,1812.933042,1812.933042,1812.933042,1812.933042,1812.933042,1812.933042,1812.933042,1812.933042,
   ** Warning ** SimHVAC: Maximum iterations (20) exceeded for all HVAC loops, at ANNUAL, 02/08 07:00 - 07:15
   **   ~~~   ** The solution for one or more of the Air Loop HVAC systems did not appear to converge
   **   ~~~   ** Air System Named = CENTRAL SYSTEM did not converge for mass flow rate
   **   ~~~   ** Check values should be zero. Most Recent values listed first.
   **   ~~~   ** Demand-to-Supply interface mass flow rate check value iteration history trace: 6.627537E-002,6.627537E-002,6.627537E-002,6.627537E-002,6.627537E-002,6.627537E-002,6.627537E-002,6.627537E-002,6.627537E-002,6.627537E-002,
   **   ~~~   ** Supply-to-demand interface deck 1 mass flow rate check value iteration history trace: 6.627537E-002,6.627537E-002,6.627537E-002,6.627537E-002,6.627537E-002,6.627537E-002,6.627537E-002,6.627537E-002,6.627537E-002,6.627537E-002,
   **   ~~~   ** Air System Named = CENTRAL SYSTEM did not converge for energy
   **   ~~~   ** Check values should be zero. Most Recent values listed first.
   **   ~~~   ** Demand-to-Supply interface energy check value iteration history trace: 1296.504668,1296.504668,1296.504668,1296.504668,1296.504667,1296.504667,1296.504667,1296.504667,1296.504667,1296.504667,
   **   ~~~   ** Supply-to-demand interface deck 1 energy check value iteration history trace: 2343.926503,2343.926503,2343.926503,2343.926503,2343.926502,2343.926502,2343.926502,2343.926502,2343.926502,2343.926502,
   ** Warning ** SimHVAC: Maximum iterations (20) exceeded for all HVAC loops, at ANNUAL, 02/10 06:53 - 07:00
   **   ~~~   ** The solution for one or more of the Air Loop HVAC systems did not appear to converge
   **   ~~~   ** Air System Named = CENTRAL SYSTEM did not converge for mass flow rate
   **   ~~~   ** Check values should be zero. Most Recent values listed first.
   **   ~~~   ** Demand-to-Supply interface mass flow rate check value iteration history trace: 6.364430E-002,6.364430E-002,6.364430E-002,6.364430E-002,6.364430E-002,6.364430E-002,6.364430E-002,6.364430E-002,6.364430E-002,6.364430E-002,
   **   ~~~   ** Supply-to-demand interface deck 1 mass flow rate check value iteration history trace: 6.364430E-002,6.364430E-002,6.364430E-002,6.364430E-002,6.364430E-002,6.364430E-002,6.364430E-002,6.364430E-002,6.364430E-002,6.364430E-002,
   **   ~~~   ** Air System Named = CENTRAL SYSTEM did not converge for energy
   **   ~~~   ** Check values should be zero. Most Recent values listed first.
   **   ~~~   ** Demand-to-Supply interface energy check value iteration history trace: 1254.647318,1254.647318,1254.647318,1254.647318,1254.647318,1254.647318,1254.647317,1254.647317,1254.647317,1254.647317,
   **   ~~~   ** Supply-to-demand interface deck 1 energy check value iteration history trace: 2232.338669,2232.338669,2232.338669,2232.338669,2232.338669,2232.338669,2232.338668,2232.338668,2232.338668,2232.338668,
   ** Warning ** SimHVAC: Maximum iterations (20) exceeded for all HVAC loops, at ANNUAL, 03/27 06:30 - 06:45
   **   ~~~   ** The solution for one or more of the Air Loop HVAC systems did not appear to converge
   **   ~~~   ** Air System Named = CENTRAL SYSTEM did not converge for mass flow rate
   **   ~~~   ** Check values should be zero. Most Recent values listed first.
   **   ~~~   ** Demand-to-Supply interface mass flow rate check value iteration history trace: 6.048201E-002,6.048201E-002,6.048201E-002,6.048201E-002,6.048201E-002,6.048201E-002,6.048201E-002,6.048201E-002,6.048201E-002,6.048201E-002,
   **   ~~~   ** Supply-to-demand interface deck 1 mass flow rate check value iteration history trace: 6.048201E-002,6.048201E-002,6.048201E-002,6.048201E-002,6.048201E-002,6.048201E-002,6.048201E-002,6.048201E-002,6.048201E-002,6.048201E-002,
   **   ~~~   ** Air System Named = CENTRAL SYSTEM did not converge for energy
   **   ~~~   ** Check values should be zero. Most Recent values listed first.
   **   ~~~   ** Demand-to-Supply interface energy check value iteration history trace: 1200.511470,1200.511470,1200.511470,1200.511469,1200.511469,1200.511469,1200.511469,1200.511469,1200.511468,1200.511468,
   **   ~~~   ** Supply-to-demand interface deck 1 energy check value iteration history trace: 2148.723836,2148.723835,2148.723835,2148.723835,2148.723834,2148.723834,2148.723834,2148.723833,2148.723833,2148.723833,
   **   ~~~   ** Node named ZONE INLET NODE shows oscillating temperatures across iterations with a repeated value of 35.355406
   **   ~~~   ** Node named ZONE INLET NODE temperature [C] iteration history trace (most recent first): 35.355406,35.355405,35.355405,35.355405,35.355405,35.355405,35.355404,35.355404,35.355404,35.355404,
   ** Warning ** SimHVAC: Maximum iterations (20) exceeded for all HVAC loops, at ANNUAL, 04/15 15:15 - 15:30
   **   ~~~   ** The solution for one or more of the Air Loop HVAC systems did not appear to converge
   **   ~~~   ** Air System Named = CENTRAL SYSTEM did not converge for energy
   **   ~~~   ** Check values should be zero. Most Recent values listed first.
   **   ~~~   ** Demand-to-Supply interface energy check value iteration history trace: 82.218998,82.218998,82.218998,82.218998,82.218998,82.218998,82.218998,82.218998,82.218998,82.218998,
   **   ~~~   ** Supply-to-demand interface deck 1 energy check value iteration history trace: 30.846680,30.846680,30.846680,30.846680,30.846680,30.846680,30.846680,30.846680,30.846680,30.846680,
   ** Warning ** Temperature out of range [-100. to 200.] (PsyPsatFnTemp)
   **   ~~~   **  Routine=PsyTwbFnTdbWPb, Environment=ANNUAL, at Simulation time=11/25 02:00 - 02:15
   **   ~~~   **  Input Temperature=-105.57
   ************* Simulation Error Summary *************
   ** Warning ** The following Report Variables were requested but not generated -- check.rdd file
   **   ~~~   ** Either the IDF did not contain these elements, the variable name is misspelled,
   **   ~~~   ** or the requested variable is an advanced output which requires Output : Diagnostics, DisplayAdvancedReportVariables;
   ************* Key=*, VarName=BASEBOARD TOTAL HEATING ENERGY, Frequency=
   ************* Key=*, VarName=WATER HEATER NATURALGAS ENERGY, Frequency=
   ************* Key=*, VarName=COOLING COIL TOTAL HEATING ENERGY, Frequency=
   ************* There are 34 unused schedules in input.
   ************* There are 388 unused week schedules in input.
   ************* There are 396 unused day schedules in input.
   ************* Use Output:Diagnostics,DisplayUnusedSchedules; to see them.
   *************
   ************* ===== Recurring Error Summary =====
   ************* The following recurring error messages occurred.
   *************
   *************  ** Warning ** "TOTAL HOT WATER LOAD" - Target water temperature should be less than or equal to the hot water temperature error continues...
   *************  **   ~~~   **   This error occurred 164919 total times;
   *************  **   ~~~   **   during Warmup 0 times;
   *************  **   ~~~   **   during Sizing 0 times.
   *************  **   ~~~   **   Max=8.724198  Min=4.805976E-004
   *************
   *************  ** Warning ** SimHVAC: Exceeding Maximum iterations for all HVAC loops, during ANNUAL continues
   *************  **   ~~~   **   This error occurred 5 total times;
   *************  **   ~~~   **   during Warmup 0 times;
   *************  **   ~~~   **   during Sizing 0 times.
   *************
   *************  ** Warning ** Temperature out of range [-100. to 200.] (PsyPsatFnTemp)
   *************  **   ~~~   **   This error occurred 2 total times;
   *************  **   ~~~   **   during Warmup 0 times;
   *************  **   ~~~   **   during Sizing 0 times.
   *************  **   ~~~   **   Max=-101.999252 C  Min=-105.570145 C
   *************
   *************
   ************* ===== Final Error Summary =====
   ************* The following error categories occurred.  Consider correcting or noting.
   ************* Loads Initialization did not Converge
   ************* ..1) very high thermal mass such as very thick concrete (solution: increase max number of warmup
   ************* ..   days in the BUILDING object);
   ************* ..2) moderate mass and inadequate space conditioning such that the building keeps getting warmer
   ************* ..   and warmer on successive days (solution: add HVAC, check building thermal properties,
   ************* ..   check if infiltration is included, make sure HVAC properly controlled);
   ************* ..3) a soil layer modeled below the concrete slab - (solution remove this layer and read about
   ************* ..   ground temperatures in the Auxiliary Programs document).
   ************* ..4) unreasonable (too small) limits in the BUILDING object for temperature (.4 default) or
   ************* ..   loads tolerances (.04 default)
   ************* Nominally Unused Constructions
   ************* ..The nominally unused constructions warning is provided to alert you to potential conditions that can cause
   ************* ..extra time during simulation. Each construction is calculated by the algorithm indicated in the HeatBalanceAlgorithm
   ************* ..object. You may remove the constructions indicated (when you use the DisplayExtraWarnings option).
   *************
   ************* EnergyPlus Warmup Error Summary. During Warmup: 0 Warning; 1 Severe Errors.
   ************* EnergyPlus Sizing Error Summary. During Sizing: 4 Warning; 0 Severe Errors.
   ************* EnergyPlus Completed Successfully-- 164959 Warning; 1 Severe Errors; Elapsed Time=00hr 01min 57.37sec
