Program Version,EnergyPlus, Version 22.2.0-c249759bad, YMD=2023.09.01 20:08,
   ************* Beginning Zone Sizing Calculations
   ** Warning ** ProcessScheduleInput: Schedule:Constant="ALWAYS ON DISCRETE", Schedule Type Limits Name="ONOFF" not found -- will not be validated
   ** Warning ** Foundation:Kiva="KIVA FOUNDATION", no Interior Horizontal Insulation Material Name defined
   **   ~~~   ** Interior Horizontal Insulation Depth will not be used.
   ** Warning ** CheckUsedConstructions: There are 15 nominally unused constructions in input.
   **   ~~~   ** Each Unused construction is shown.
   ************* Construction=INTERIOR FLOOR
   ************* Construction=INTERIOR WINDOW
   ************* Construction=EXTERIOR DOOR
   ************* Construction=INTERIOR DOOR
   ************* Construction=GABLE CONSTRUCTION
   ************* Construction=CRAWL_FLOOR
   ************* Construction=INSULATED PIPE
   ************* Construction=PLAIN PIPE
   ************* Construction=TDD PIPE
   ************* Construction=TDD DOME
   ************* Construction=TDD DIFFUSER
   ************* Construction=CRAWL WALL
   ************* Construction=CEILING-FLOOR-LAYER
   ************* Construction=SLAB CONSTRUCTION W FULL R10 INSULATION
   ************* Construction=SLAB CONSTRUCTION W FULL R5 INSULATION
   ** Warning ** GetDXCoils: Coil:Heating:DX:SingleSpeed="DX_HEATING_COIL" curve values
   **   ~~~   ** ... Defrost Energy Input Ratio Function of Temperature Curve Name = DEFROSTEIR output is not equal to 1.0 (+ or - 10%) at rated conditions.
   **   ~~~   ** ... Curve output at rated conditions = 0.152
   ************* Beginning System Sizing Calculations
   ************* Beginning Plant Sizing Calculations
   ** Warning ** SizeDXCoil Coil:Cooling:DX:SingleSpeed DX_COOLING_COIL
   **   ~~~   ** ...Gross Rated Total Cooling Capacity [W] will be limited by the maximum rated volume flow per rated total capacity ratio.
   **   ~~~   ** ...DX coil volume flow rate ( m3/s ) = 0.592037
   **   ~~~   ** ...Requested capacity ( W ) = 9313.547
   **   ~~~   ** ...Requested flow/capacity ratio ( m3/s/W ) = 6.356E-005
   **   ~~~   ** ...Maximum flow/capacity ratio ( m3/s/W ) = 6.041E-005
   **   ~~~   ** ...Adjusted capacity ( W ) = 9800.321
   ** Warning ** SizeDXCoil Coil:Heating:DX:SingleSpeed DX_HEATING_COIL
   **   ~~~   ** ...Gross Rated Heating Capacity [W] will be limited by the maximum rated volume flow per rated total capacity ratio.
   **   ~~~   ** ...DX coil volume flow rate ( m3/s ) = 0.592037
   **   ~~~   ** ...Requested capacity ( W ) = 9800.321
   **   ~~~   ** ...Requested flow/capacity ratio ( m3/s/W ) = 6.041E-005
   **   ~~~   ** ...Maximum flow/capacity ratio ( m3/s/W ) = 6.041E-005
   **   ~~~   ** ...Adjusted capacity ( W ) = 9800.321
   ** Warning ** Coil:WaterHeating:AirToWaterHeatPump:Wrapped "HEAT PUMP WATER HEATER EVAPORATOR": Rated air volume flow rate per watt of rated total water heating capacity is out of range
   **   ~~~   ** Min Rated Vol Flow Per Watt=[4.027E-005], Rated Vol Flow Per Watt=[1.510E-004], Max Rated Vol Flow Per Watt=[8.056E-005]. See Input-Output Reference Manual for valid range.
   ************* SizeFan: : Potential issue with equipment sizing for Fan:OnOff HEAT PUMP WATER HEATER FAN
   **   ~~~   ** User-Specified Maximum Flow Rate [m3/s] = 0.22653
   **   ~~~   ** differs from Design Size Maximum Flow Rate [m3/s] = 7.55250E-002
   **   ~~~   ** This may, or may not, indicate mismatched component sizes.
   **   ~~~   ** Verify that the value entered is intended and is consistent with other components.
   ** Warning ** Water heater = WATER HEATER TANK:  Recovery Efficiency and Energy Factor could not be calculated during the test for standard ratings
   **   ~~~   ** Setpoint was never recovered and/or heater never turned on
   ** Warning ** Check input. Pump nominal power or motor efficiency is set to 0, for pump=MAINS PRESSURE
   ** Warning ** AirflowNetwork::Solver::validate_distribution: Heat pump water heater is simulated along with an AirflowNetwork but is not included in the AirflowNetwork.
   ** Warning ** Output:Meter: invalid Key Name="ELECTRIC_RANGE:INTERIOREQUIPMENT:ELECTRICITY" - not found.
   ** Warning ** Output:Meter: invalid Key Name="ELECTRIC_DRYER:INTERIOREQUIPMENT:ELECTRICITY" - not found.
   ** Warning ** Output:Meter: invalid Key Name="HEATRECOVERY:ELECTRICITY" - not found.
   ** Warning ** Output:Meter: invalid Key Name="HEATING:NATURALGAS" - not found.
   ** Warning ** Output:Meter: invalid Key Name="WATERSYSTEMS:NATURALGAS" - not found.
   ** Warning ** Output:Meter: invalid Key Name="PROPANE:FACILITY" - not found.
   ** Warning ** Output:Meter: invalid Key Name="HEATING:PROPANE" - not found.
   ************* Testing Individual Branch Integrity
   ************* All Branches passed integrity testing
   ************* Testing Individual Supply Air Path Integrity
   ************* All Supply Air Paths passed integrity testing
   ************* Testing Individual Return Air Path Integrity
   ************* All Return Air Paths passed integrity testing
   ************* No node connection errors were found.
   ************* Beginning Simulation
   ** Warning ** CalcEquipmentFlowRates: "TOTAL HOT WATER LOAD" - Target water temperature is greater than the hot water temperature by (3.90 C)
   **   ~~~   **  Environment=EXTREME_WINTER, at Simulation time=12/22 07:00 - 07:15
   **   ~~~   ** ...target water temperature     = 53.33 C
   **   ~~~   ** ...hot water temperature        = 49.43 C
   **   ~~~   ** ...Target water temperature should be less than or equal to the hot water temperature. Verify temperature setpoints and schedules.
   ** Warning ** SimHVAC: Maximum iterations (20) exceeded for all HVAC loops, at EXTREME_WINTER, 01/04 08:45 - 09:00
   **   ~~~   ** The solution for one or more of the Air Loop HVAC systems did not appear to converge
   **   ~~~   ** Air System Named = CENTRAL SYSTEM did not converge for mass flow rate
   **   ~~~   ** Check values should be zero. Most Recent values listed first.
   **   ~~~   ** Demand-to-Supply interface mass flow rate check value iteration history trace: 9.451478E-002,9.451478E-002,9.451478E-002,9.451478E-002,9.451478E-002,9.451478E-002,9.451478E-002,9.451478E-002,9.451478E-002,9.451478E-002,
   **   ~~~   ** Supply-to-demand interface deck 1 mass flow rate check value iteration history trace: 9.451478E-002,9.451478E-002,9.451478E-002,9.451478E-002,9.451478E-002,9.451478E-002,9.451478E-002,9.451478E-002,9.451478E-002,9.451478E-002,
   **   ~~~   ** Air System Named = CENTRAL SYSTEM did not converge for energy
   **   ~~~   ** Check values should be zero. Most Recent values listed first.
   **   ~~~   ** Demand-to-Supply interface energy check value iteration history trace: 1872.882564,1872.882564,1872.882563,1872.882563,1872.882563,1872.882563,1872.882563,1872.882563,1872.882563,1872.882563,
   **   ~~~   ** Supply-to-demand interface deck 1 energy check value iteration history trace: 2953.433058,2953.433058,2953.433058,2953.433058,2953.433057,2953.433057,2953.433057,2953.433057,2953.433057,2953.433057,
   ** Warning ** SimHVAC: Maximum iterations (20) exceeded for all HVAC loops, at ANNUAL, 01/01 11:23 - 11:26
   **   ~~~   ** The solution for one or more of the Air Loop HVAC systems did not appear to converge
   **   ~~~   ** Air System Named = CENTRAL SYSTEM did not converge for mass flow rate
   **   ~~~   ** Check values should be zero. Most Recent values listed first.
   **   ~~~   ** Demand-to-Supply interface mass flow rate check value iteration history trace: 7.944079E-002,7.944079E-002,7.944079E-002,7.944079E-002,7.944079E-002,7.944079E-002,7.944079E-002,7.944079E-002,7.944079E-002,7.944079E-002,
   **   ~~~   ** Supply-to-demand interface deck 1 mass flow rate check value iteration history trace: 7.944079E-002,7.944079E-002,7.944079E-002,7.944079E-002,7.944079E-002,7.944079E-002,7.944079E-002,7.944079E-002,7.944079E-002,7.944079E-002,
   **   ~~~   ** Air System Named = CENTRAL SYSTEM did not converge for energy
   **   ~~~   ** Check values should be zero. Most Recent values listed first.
   **   ~~~   ** Demand-to-Supply interface energy check value iteration history trace: 1563.616946,1563.616946,1563.616946,1563.616946,1563.616946,1563.616945,1563.616945,1563.616945,1563.616945,1563.616945,
   **   ~~~   ** Supply-to-demand interface deck 1 energy check value iteration history trace: 2475.005898,2475.005897,2475.005897,2475.005897,2475.005897,2475.005897,2475.005897,2475.005897,2475.005896,2475.005896,
   ** Warning ** SimHVAC: Maximum iterations (20) exceeded for all HVAC loops, at ANNUAL, 01/09 08:45 - 08:49
   **   ~~~   ** The solution for one or more of the Air Loop HVAC systems did not appear to converge
   **   ~~~   ** Air System Named = CENTRAL SYSTEM did not converge for mass flow rate
   **   ~~~   ** Check values should be zero. Most Recent values listed first.
   **   ~~~   ** Demand-to-Supply interface mass flow rate check value iteration history trace: 7.270223E-002,7.270223E-002,7.270223E-002,7.270223E-002,7.270223E-002,7.270223E-002,7.270223E-002,7.270223E-002,7.270223E-002,7.270223E-002,
   **   ~~~   ** Supply-to-demand interface deck 1 mass flow rate check value iteration history trace: 7.270223E-002,7.270223E-002,7.270223E-002,7.270223E-002,7.270223E-002,7.270223E-002,7.270223E-002,7.270223E-002,7.270223E-002,7.270223E-002,
   **   ~~~   ** Air System Named = CENTRAL SYSTEM did not converge for energy
   **   ~~~   ** Check values should be zero. Most Recent values listed first.
   **   ~~~   ** Demand-to-Supply interface energy check value iteration history trace: 1432.492938,1432.492938,1432.492938,1432.492938,1432.492938,1432.492937,1432.492937,1432.492937,1432.492937,1432.492937,
   **   ~~~   ** Supply-to-demand interface deck 1 energy check value iteration history trace: 2490.250718,2490.250718,2490.250718,2490.250718,2490.250718,2490.250717,2490.250717,2490.250717,2490.250717,2490.250717,
   ** Warning ** SimHVAC: Maximum iterations (20) exceeded for all HVAC loops, at ANNUAL, 01/10 02:40 - 02:45
   **   ~~~   ** The solution for one or more of the Air Loop HVAC systems did not appear to converge
   **   ~~~   ** Air System Named = CENTRAL SYSTEM did not converge for mass flow rate
   **   ~~~   ** Check values should be zero. Most Recent values listed first.
   **   ~~~   ** Demand-to-Supply interface mass flow rate check value iteration history trace: 6.663045E-002,6.663045E-002,6.663045E-002,6.663045E-002,6.663045E-002,6.663045E-002,6.663045E-002,6.663045E-002,6.663045E-002,6.663045E-002,
   **   ~~~   ** Supply-to-demand interface deck 1 mass flow rate check value iteration history trace: 6.663045E-002,6.663045E-002,6.663045E-002,6.663045E-002,6.663045E-002,6.663045E-002,6.663045E-002,6.663045E-002,6.663045E-002,6.663045E-002,
   **   ~~~   ** Air System Named = CENTRAL SYSTEM did not converge for energy
   **   ~~~   ** Check values should be zero. Most Recent values listed first.
   **   ~~~   ** Demand-to-Supply interface energy check value iteration history trace: 1245.930298,1245.930298,1245.930298,1245.930298,1245.930298,1245.930298,1245.930298,1245.930298,1245.930298,1245.930298,
   **   ~~~   ** Supply-to-demand interface deck 1 energy check value iteration history trace: 2058.178682,2058.178682,2058.178682,2058.178681,2058.178681,2058.178681,2058.178681,2058.178681,2058.178681,2058.178681,
   ** Warning ** SimHVAC: Maximum iterations (20) exceeded for all HVAC loops, at ANNUAL, 02/13 07:53 - 08:00
   **   ~~~   ** The solution for one or more of the Air Loop HVAC systems did not appear to converge
   **   ~~~   ** Air System Named = CENTRAL SYSTEM did not converge for mass flow rate
   **   ~~~   ** Check values should be zero. Most Recent values listed first.
   **   ~~~   ** Demand-to-Supply interface mass flow rate check value iteration history trace: 5.725100E-002,5.725100E-002,5.725100E-002,5.725100E-002,5.725100E-002,5.725100E-002,5.725100E-002,5.725100E-002,5.725100E-002,5.725100E-002,
   **   ~~~   ** Supply-to-demand interface deck 1 mass flow rate check value iteration history trace: 5.725100E-002,5.725100E-002,5.725100E-002,5.725100E-002,5.725100E-002,5.725100E-002,5.725100E-002,5.725100E-002,5.725100E-002,5.725100E-002,
   **   ~~~   ** Air System Named = CENTRAL SYSTEM did not converge for energy
   **   ~~~   ** Check values should be zero. Most Recent values listed first.
   **   ~~~   ** Demand-to-Supply interface energy check value iteration history trace: 1129.611736,1129.611736,1129.611736,1129.611736,1129.611736,1129.611736,1129.611736,1129.611736,1129.611736,1129.611736,
   **   ~~~   ** Supply-to-demand interface deck 1 energy check value iteration history trace: 2044.391472,2044.391472,2044.391472,2044.391472,2044.391472,2044.391471,2044.391471,2044.391471,2044.391471,2044.391471,
   ** Warning ** SimHVAC: Maximum iterations (20) exceeded for all HVAC loops, at ANNUAL, 02/28 08:45 - 08:50
   **   ~~~   ** The solution for one or more of the Air Loop HVAC systems did not appear to converge
   **   ~~~   ** Air System Named = CENTRAL SYSTEM did not converge for mass flow rate
   **   ~~~   ** Check values should be zero. Most Recent values listed first.
   **   ~~~   ** Demand-to-Supply interface mass flow rate check value iteration history trace: 7.074476E-002,7.074476E-002,7.074476E-002,7.074476E-002,7.074476E-002,7.074476E-002,7.074476E-002,7.074476E-002,7.074476E-002,7.074476E-002,
   **   ~~~   ** Supply-to-demand interface deck 1 mass flow rate check value iteration history trace: 7.074476E-002,7.074476E-002,7.074476E-002,7.074476E-002,7.074476E-002,7.074476E-002,7.074476E-002,7.074476E-002,7.074476E-002,7.074476E-002,
   **   ~~~   ** Air System Named = CENTRAL SYSTEM did not converge for energy
   **   ~~~   ** Check values should be zero. Most Recent values listed first.
   **   ~~~   ** Demand-to-Supply interface energy check value iteration history trace: 1397.967331,1397.967331,1397.967330,1397.967330,1397.967330,1397.967330,1397.967330,1397.967330,1397.967330,1397.967330,
   **   ~~~   ** Supply-to-demand interface deck 1 energy check value iteration history trace: 2485.258520,2485.258520,2485.258520,2485.258520,2485.258520,2485.258520,2485.258520,2485.258520,2485.258520,2485.258519,
   ** Warning ** SimHVAC: Maximum iterations (20) exceeded for all HVAC loops, at ANNUAL, 03/29 10:00 - 10:15
   **   ~~~   ** The solution for one or more of the Air Loop HVAC systems did not appear to converge
   **   ~~~   ** Air System Named = CENTRAL SYSTEM did not converge for mass flow rate
   **   ~~~   ** Check values should be zero. Most Recent values listed first.
   **   ~~~   ** Demand-to-Supply interface mass flow rate check value iteration history trace: 3.145016E-002,3.145016E-002,3.145016E-002,3.145016E-002,3.145016E-002,3.145016E-002,3.145016E-002,3.145016E-002,3.145016E-002,3.145016E-002,
   **   ~~~   ** Supply-to-demand interface deck 1 mass flow rate check value iteration history trace: 3.145016E-002,3.145016E-002,3.145016E-002,3.145016E-002,3.145016E-002,3.145016E-002,3.145016E-002,3.145016E-002,3.145016E-002,3.145016E-002,
   **   ~~~   ** Air System Named = CENTRAL SYSTEM did not converge for energy
   **   ~~~   ** Check values should be zero. Most Recent values listed first.
   **   ~~~   ** Demand-to-Supply interface energy check value iteration history trace: 740.535015,740.535015,740.535015,740.535016,740.535016,740.535016,740.535016,740.535016,740.535016,740.535017,
   **   ~~~   ** Supply-to-demand interface deck 1 energy check value iteration history trace: 274.634891,274.634891,274.634891,274.634891,274.634891,274.634891,274.634892,274.634892,274.634892,274.634892,
   ** Warning ** SimHVAC: Maximum iterations (20) exceeded for all HVAC loops, at ANNUAL, 03/30 22:45 - 22:52
   **   ~~~   ** The solution for one or more of the Air Loop HVAC systems did not appear to converge
   **   ~~~   ** Air System Named = CENTRAL SYSTEM did not converge for energy
   **   ~~~   ** Check values should be zero. Most Recent values listed first.
   **   ~~~   ** Demand-to-Supply interface energy check value iteration history trace: 126.641618,126.641618,126.641618,126.641618,126.641618,126.641618,126.641618,126.641618,126.641618,126.641618,
   **   ~~~   ** Supply-to-demand interface deck 1 energy check value iteration history trace: 53.202590,53.202590,53.202590,53.202590,53.202590,53.202590,53.202590,53.202590,53.202590,53.202590,
   ** Warning ** SimHVAC: Maximum iterations (20) exceeded for all HVAC loops, at ANNUAL, 04/16 09:39 - 09:40
   **   ~~~   ** The solution for one or more of the Air Loop HVAC systems did not appear to converge
   **   ~~~   ** Air System Named = CENTRAL SYSTEM did not converge for mass flow rate
   **   ~~~   ** Check values should be zero. Most Recent values listed first.
   **   ~~~   ** Demand-to-Supply interface mass flow rate check value iteration history trace: 0.397365,0.397365,0.397365,0.397365,0.397365,0.397365,0.397365,0.397365,0.397365,0.397365,
   **   ~~~   ** Supply-to-demand interface deck 1 mass flow rate check value iteration history trace: 0.397365,0.397365,0.397365,0.397365,0.397365,0.397365,0.397365,0.397365,0.397365,0.397365,
   **   ~~~   ** Air System Named = CENTRAL SYSTEM did not converge for energy
   **   ~~~   ** Check values should be zero. Most Recent values listed first.
   **   ~~~   ** Demand-to-Supply interface energy check value iteration history trace: 9456.783634,9456.783634,9456.783635,9456.783636,9456.783637,9456.783638,9456.783639,9456.783640,9456.783641,9456.783642,
   **   ~~~   ** Supply-to-demand interface deck 1 energy check value iteration history trace: 4361.967738,4361.967738,4361.967739,4361.967739,4361.967740,4361.967740,4361.967741,4361.967741,4361.967741,4361.967742,
   ** Warning ** Temperature out of range [-100. to 200.] (PsyPsatFnTemp)
   **   ~~~   **  Routine=PsyTwbFnTdbWPb, Environment=ANNUAL, at Simulation time=11/25 02:00 - 02:15
   **   ~~~   **  Input Temperature=-105.57
   ** Warning ** SimHVAC: Maximum iterations (20) exceeded for all HVAC loops, at ANNUAL, 11/30 11:08 - 11:11
   **   ~~~   ** The solution for one or more of the Air Loop HVAC systems did not appear to converge
   **   ~~~   ** Air System Named = CENTRAL SYSTEM did not converge for mass flow rate
   **   ~~~   ** Check values should be zero. Most Recent values listed first.
   **   ~~~   ** Demand-to-Supply interface mass flow rate check value iteration history trace: 0.165445,0.165445,0.165445,0.165445,0.165445,0.165445,0.165445,0.165445,0.165445,0.165445,
   **   ~~~   ** Supply-to-demand interface deck 1 mass flow rate check value iteration history trace: 0.165445,0.165445,0.165445,0.165445,0.165445,0.165445,0.165445,0.165445,0.165445,0.165445,
   **   ~~~   ** Air System Named = CENTRAL SYSTEM did not converge for energy
   **   ~~~   ** Check values should be zero. Most Recent values listed first.
   **   ~~~   ** Demand-to-Supply interface energy check value iteration history trace: 3949.541225,3949.541226,3949.541226,3949.541226,3949.541227,3949.541227,3949.541228,3949.541228,3949.541229,3949.541229,
   **   ~~~   ** Supply-to-demand interface deck 1 energy check value iteration history trace: 1447.088875,1447.088876,1447.088876,1447.088876,1447.088876,1447.088876,1447.088876,1447.088877,1447.088877,1447.088877,
   ** Warning ** SimHVAC: Maximum iterations (20) exceeded for all HVAC loops, at ANNUAL, 12/01 12:45 - 13:00
   **   ~~~   ** The solution for one or more of the Air Loop HVAC systems did not appear to converge
   **   ~~~   ** Air System Named = CENTRAL SYSTEM did not converge for mass flow rate
   **   ~~~   ** Check values should be zero. Most Recent values listed first.
   **   ~~~   ** Demand-to-Supply interface mass flow rate check value iteration history trace: 4.876097E-002,4.876097E-002,4.876097E-002,4.876097E-002,4.876097E-002,4.876097E-002,4.876097E-002,4.876097E-002,4.876097E-002,4.876097E-002,
   **   ~~~   ** Supply-to-demand interface deck 1 mass flow rate check value iteration history trace: 4.876097E-002,4.876097E-002,4.876097E-002,4.876097E-002,4.876097E-002,4.876097E-002,4.876097E-002,4.876097E-002,4.876097E-002,4.876097E-002,
   **   ~~~   ** Air System Named = CENTRAL SYSTEM did not converge for energy
   **   ~~~   ** Check values should be zero. Most Recent values listed first.
   **   ~~~   ** Demand-to-Supply interface energy check value iteration history trace: 1149.888845,1149.888845,1149.888845,1149.888845,1149.888845,1149.888845,1149.888845,1149.888845,1149.888846,1149.888846,
   **   ~~~   ** Supply-to-demand interface deck 1 energy check value iteration history trace: 399.318300,399.318300,399.318300,399.318300,399.318300,399.318300,399.318300,399.318300,399.318300,399.318300,
   ** Warning ** SimHVAC: Maximum iterations (20) exceeded for all HVAC loops, at ANNUAL, 12/02 12:08 - 12:15
   **   ~~~   ** The solution for one or more of the Air Loop HVAC systems did not appear to converge
   **   ~~~   ** Air System Named = CENTRAL SYSTEM did not converge for mass flow rate
   **   ~~~   ** Check values should be zero. Most Recent values listed first.
   **   ~~~   ** Demand-to-Supply interface mass flow rate check value iteration history trace: 8.305240E-002,8.305240E-002,8.305240E-002,8.305240E-002,8.305240E-002,8.305240E-002,8.305240E-002,8.305240E-002,8.305240E-002,8.305240E-002,
   **   ~~~   ** Supply-to-demand interface deck 1 mass flow rate check value iteration history trace: 8.305240E-002,8.305240E-002,8.305240E-002,8.305240E-002,8.305240E-002,8.305240E-002,8.305240E-002,8.305240E-002,8.305240E-002,8.305240E-002,
   **   ~~~   ** Air System Named = CENTRAL SYSTEM did not converge for energy
   **   ~~~   ** Check values should be zero. Most Recent values listed first.
   **   ~~~   ** Demand-to-Supply interface energy check value iteration history trace: 1937.239108,1937.239108,1937.239109,1937.239109,1937.239109,1937.239109,1937.239109,1937.239109,1937.239109,1937.239109,
   **   ~~~   ** Supply-to-demand interface deck 1 energy check value iteration history trace: 663.672010,663.672010,663.672010,663.672010,663.672010,663.672010,663.672011,663.672011,663.672011,663.672011,
   ************* Simulation Error Summary *************
   ** Warning ** The following Report Variables were requested but not generated -- check.rdd file
   **   ~~~   ** Either the IDF did not contain these elements, the variable name is misspelled,
   **   ~~~   ** or the requested variable is an advanced output which requires Output : Diagnostics, DisplayAdvancedReportVariables;
   ************* Key=*, VarName=BASEBOARD TOTAL HEATING ENERGY, Frequency=
   ************* Key=*, VarName=WATER HEATER NATURALGAS ENERGY, Frequency=
   ************* Key=*, VarName=COOLING COIL TOTAL HEATING ENERGY, Frequency=
   ************* There are 34 unused schedules in input.
   ************* There are 388 unused week schedules in input.
   ************* There are 396 unused day schedules in input.
   ************* Use Output:Diagnostics,DisplayUnusedSchedules; to see them.
   *************
   ************* ===== Recurring Error Summary =====
   ************* The following recurring error messages occurred.
   *************
   *************  ** Warning ** "TOTAL HOT WATER LOAD" - Target water temperature should be less than or equal to the hot water temperature error continues...
   *************  **   ~~~   **   This error occurred 206765 total times;
   *************  **   ~~~   **   during Warmup 0 times;
   *************  **   ~~~   **   during Sizing 0 times.
   *************  **   ~~~   **   Max=11.330182  Min=6.753645E-004
   *************
   *************  ** Warning ** Temperature out of range [-100. to 200.] (PsyPsatFnTemp)
   *************  **   ~~~   **   This error occurred 2 total times;
   *************  **   ~~~   **   during Warmup 0 times;
   *************  **   ~~~   **   during Sizing 0 times.
   *************  **   ~~~   **   Max=-101.999252 C  Min=-105.570145 C
   *************
   *************
   ************* ===== Final Error Summary =====
   ************* The following error categories occurred.  Consider correcting or noting.
   ************* Nominally Unused Constructions
   ************* ..The nominally unused constructions warning is provided to alert you to potential conditions that can cause
   ************* ..extra time during simulation. Each construction is calculated by the algorithm indicated in the HeatBalanceAlgorithm
   ************* ..object. You may remove the constructions indicated (when you use the DisplayExtraWarnings option).
   *************
   ************* EnergyPlus Warmup Error Summary. During Warmup: 0 Warning; 0 Severe Errors.
   ************* EnergyPlus Sizing Error Summary. During Sizing: 4 Warning; 0 Severe Errors.
   ************* EnergyPlus Completed Successfully-- 206798 Warning; 0 Severe Errors; Elapsed Time=00hr 01min 50.82sec
