Program Version,EnergyPlus, Version 22.2.0-c249759bad, YMD=2023.09.01 17:11,
   ************* Beginning Zone Sizing Calculations
   ** Warning ** ProcessScheduleInput: Schedule:Constant="ALWAYS ON DISCRETE", Schedule Type Limits Name="ONOFF" not found -- will not be validated
   ** Warning ** Foundation:Kiva="KIVA FOUNDATION", no Interior Horizontal Insulation Material Name defined
   **   ~~~   ** Interior Horizontal Insulation Depth will not be used.
   ** Warning ** CheckUsedConstructions: There are 15 nominally unused constructions in input.
   **   ~~~   ** Each Unused construction is shown.
   ************* Construction=INTERIOR FLOOR
   ************* Construction=INTERIOR WINDOW
   ************* Construction=EXTERIOR DOOR
   ************* Construction=INTERIOR DOOR
   ************* Construction=GABLE CONSTRUCTION
   ************* Construction=CRAWL_FLOOR
   ************* Construction=INSULATED PIPE
   ************* Construction=PLAIN PIPE
   ************* Construction=TDD PIPE
   ************* Construction=TDD DOME
   ************* Construction=TDD DIFFUSER
   ************* Construction=CRAWL WALL
   ************* Construction=CEILING-FLOOR-LAYER
   ************* Construction=SLAB CONSTRUCTION W FULL R10 INSULATION
   ************* Construction=SLAB CONSTRUCTION W FULL R5 INSULATION
   ** Warning ** GetDXCoils: Coil:Heating:DX:SingleSpeed="DX_HEATING_COIL" curve values
   **   ~~~   ** ... Defrost Energy Input Ratio Function of Temperature Curve Name = DEFROSTEIR output is not equal to 1.0 (+ or - 10%) at rated conditions.
   **   ~~~   ** ... Curve output at rated conditions = 0.152
   ************* Beginning System Sizing Calculations
   ************* Beginning Plant Sizing Calculations
   ** Warning ** Coil:WaterHeating:AirToWaterHeatPump:Wrapped "HEAT PUMP WATER HEATER EVAPORATOR": Rated air volume flow rate per watt of rated total water heating capacity is out of range
   **   ~~~   ** Min Rated Vol Flow Per Watt=[4.027E-005], Rated Vol Flow Per Watt=[1.510E-004], Max Rated Vol Flow Per Watt=[8.056E-005]. See Input-Output Reference Manual for valid range.
   ************* SizeFan: : Potential issue with equipment sizing for Fan:OnOff HEAT PUMP WATER HEATER FAN
   **   ~~~   ** User-Specified Maximum Flow Rate [m3/s] = 0.22653
   **   ~~~   ** differs from Design Size Maximum Flow Rate [m3/s] = 7.55250E-002
   **   ~~~   ** This may, or may not, indicate mismatched component sizes.
   **   ~~~   ** Verify that the value entered is intended and is consistent with other components.
   ** Warning ** Water heater = WATER HEATER TANK:  Recovery Efficiency and Energy Factor could not be calculated during the test for standard ratings
   **   ~~~   ** Setpoint was never recovered and/or heater never turned on
   ** Warning ** Check input. Pump nominal power or motor efficiency is set to 0, for pump=MAINS PRESSURE
   ** Warning ** AirflowNetwork::Solver::validate_distribution: Heat pump water heater is simulated along with an AirflowNetwork but is not included in the AirflowNetwork.
   ** Warning ** Output:Meter: invalid Key Name="ELECTRIC_RANGE:INTERIOREQUIPMENT:ELECTRICITY" - not found.
   ** Warning ** Output:Meter: invalid Key Name="ELECTRIC_DRYER:INTERIOREQUIPMENT:ELECTRICITY" - not found.
   ** Warning ** Output:Meter: invalid Key Name="HEATRECOVERY:ELECTRICITY" - not found.
   ** Warning ** Output:Meter: invalid Key Name="HEATING:NATURALGAS" - not found.
   ** Warning ** Output:Meter: invalid Key Name="WATERSYSTEMS:NATURALGAS" - not found.
   ** Warning ** Output:Meter: invalid Key Name="PROPANE:FACILITY" - not found.
   ** Warning ** Output:Meter: invalid Key Name="HEATING:PROPANE" - not found.
   ************* Testing Individual Branch Integrity
   ************* All Branches passed integrity testing
   ************* Testing Individual Supply Air Path Integrity
   ************* All Supply Air Paths passed integrity testing
   ************* Testing Individual Return Air Path Integrity
   ************* All Return Air Paths passed integrity testing
   ************* No node connection errors were found.
   ************* Beginning Simulation
   ** Warning ** CalcEquipmentFlowRates: "TOTAL HOT WATER LOAD" - Target water temperature is greater than the hot water temperature by (2.14 C)
   **   ~~~   **  Environment=EXTREME_WINTER, at Simulation time=01/20 06:00 - 06:15
   **   ~~~   ** ...target water temperature     = 53.33 C
   **   ~~~   ** ...hot water temperature        = 51.20 C
   **   ~~~   ** ...Target water temperature should be less than or equal to the hot water temperature. Verify temperature setpoints and schedules.
   ** Warning ** SimHVAC: Maximum iterations (20) exceeded for all HVAC loops, at ANNUAL, 02/13 17:40 - 17:45
   **   ~~~   ** The solution for one or more of the Air Loop HVAC systems did not appear to converge
   **   ~~~   ** Air System Named = CENTRAL SYSTEM did not converge for mass flow rate
   **   ~~~   ** Check values should be zero. Most Recent values listed first.
   **   ~~~   ** Demand-to-Supply interface mass flow rate check value iteration history trace: 5.650220E-002,5.650220E-002,5.650220E-002,5.650220E-002,5.650220E-002,5.650220E-002,5.650220E-002,5.650220E-002,5.650220E-002,5.650220E-002,
   **   ~~~   ** Supply-to-demand interface deck 1 mass flow rate check value iteration history trace: 5.650220E-002,5.650220E-002,5.650220E-002,5.650220E-002,5.650220E-002,5.650220E-002,5.650220E-002,5.650220E-002,5.650220E-002,5.650220E-002,
   **   ~~~   ** Air System Named = CENTRAL SYSTEM did not converge for energy
   **   ~~~   ** Check values should be zero. Most Recent values listed first.
   **   ~~~   ** Demand-to-Supply interface energy check value iteration history trace: 1111.764908,1111.764908,1111.764908,1111.764908,1111.764908,1111.764908,1111.764908,1111.764908,1111.764908,1111.764908,
   **   ~~~   ** Supply-to-demand interface deck 1 energy check value iteration history trace: 1961.006543,1961.006543,1961.006543,1961.006543,1961.006543,1961.006543,1961.006542,1961.006542,1961.006542,1961.006542,
   ** Warning ** SimHVAC: Maximum iterations (20) exceeded for all HVAC loops, at ANNUAL, 02/14 14:00 - 14:08
   **   ~~~   ** The solution for one or more of the Air Loop HVAC systems did not appear to converge
   **   ~~~   ** Air System Named = CENTRAL SYSTEM did not converge for mass flow rate
   **   ~~~   ** Check values should be zero. Most Recent values listed first.
   **   ~~~   ** Demand-to-Supply interface mass flow rate check value iteration history trace: 5.259292E-002,5.259292E-002,5.259292E-002,5.259292E-002,5.259292E-002,5.259292E-002,5.259292E-002,5.259292E-002,5.259292E-002,5.259292E-002,
   **   ~~~   ** Supply-to-demand interface deck 1 mass flow rate check value iteration history trace: 5.259292E-002,5.259292E-002,5.259292E-002,5.259292E-002,5.259292E-002,5.259292E-002,5.259292E-002,5.259292E-002,5.259292E-002,5.259292E-002,
   **   ~~~   ** Air System Named = CENTRAL SYSTEM did not converge for energy
   **   ~~~   ** Check values should be zero. Most Recent values listed first.
   **   ~~~   ** Demand-to-Supply interface energy check value iteration history trace: 1042.185222,1042.185222,1042.185222,1042.185222,1042.185222,1042.185222,1042.185222,1042.185222,1042.185222,1042.185222,
   **   ~~~   ** Supply-to-demand interface deck 1 energy check value iteration history trace: 1836.044189,1836.044189,1836.044188,1836.044188,1836.044188,1836.044188,1836.044188,1836.044188,1836.044188,1836.044188,
   ** Warning ** SimHVAC: Maximum iterations (20) exceeded for all HVAC loops, at ANNUAL, 04/24 02:30 - 02:38
   **   ~~~   ** The solution for one or more of the Air Loop HVAC systems did not appear to converge
   **   ~~~   ** Air System Named = CENTRAL SYSTEM did not converge for mass flow rate
   **   ~~~   ** Check values should be zero. Most Recent values listed first.
   **   ~~~   ** Demand-to-Supply interface mass flow rate check value iteration history trace: 5.464991E-002,5.464991E-002,5.464991E-002,5.464991E-002,5.464991E-002,5.464991E-002,5.464991E-002,5.464991E-002,5.464991E-002,5.464991E-002,
   **   ~~~   ** Supply-to-demand interface deck 1 mass flow rate check value iteration history trace: 5.464991E-002,5.464991E-002,5.464991E-002,5.464991E-002,5.464991E-002,5.464991E-002,5.464991E-002,5.464991E-002,5.464991E-002,5.464991E-002,
   **   ~~~   ** Air System Named = CENTRAL SYSTEM did not converge for energy
   **   ~~~   ** Check values should be zero. Most Recent values listed first.
   **   ~~~   ** Demand-to-Supply interface energy check value iteration history trace: 1022.508385,1022.508385,1022.508385,1022.508385,1022.508385,1022.508384,1022.508384,1022.508384,1022.508384,1022.508384,
   **   ~~~   ** Supply-to-demand interface deck 1 energy check value iteration history trace: 1857.698664,1857.698664,1857.698664,1857.698664,1857.698664,1857.698664,1857.698664,1857.698663,1857.698663,1857.698663,
   ** Warning ** SimHVAC: Maximum iterations (20) exceeded for all HVAC loops, at ANNUAL, 10/08 10:30 - 10:45
   **   ~~~   ** The solution for one or more of the Air Loop HVAC systems did not appear to converge
   **   ~~~   ** Air System Named = CENTRAL SYSTEM did not converge for mass flow rate
   **   ~~~   ** Check values should be zero. Most Recent values listed first.
   **   ~~~   ** Demand-to-Supply interface mass flow rate check value iteration history trace: 2.721347E-002,2.721347E-002,2.721347E-002,2.721347E-002,2.721347E-002,2.721347E-002,2.721347E-002,2.721347E-002,2.721347E-002,2.721347E-002,
   **   ~~~   ** Supply-to-demand interface deck 1 mass flow rate check value iteration history trace: 2.721347E-002,2.721347E-002,2.721347E-002,2.721347E-002,2.721347E-002,2.721347E-002,2.721347E-002,2.721347E-002,2.721347E-002,2.721347E-002,
   **   ~~~   ** Air System Named = CENTRAL SYSTEM did not converge for energy
   **   ~~~   ** Check values should be zero. Most Recent values listed first.
   **   ~~~   ** Demand-to-Supply interface energy check value iteration history trace: 638.811876,638.811876,638.811876,638.811876,638.811876,638.811876,638.811876,638.811876,638.811876,638.811876,
   **   ~~~   ** Supply-to-demand interface deck 1 energy check value iteration history trace: 228.242513,228.242513,228.242513,228.242513,228.242513,228.242513,228.242513,228.242513,228.242513,228.242513,
   ** Warning ** SimHVAC: Maximum iterations (20) exceeded for all HVAC loops, at ANNUAL, 10/11 21:00 - 21:15
   **   ~~~   ** The solution for one or more of the Air Loop HVAC systems did not appear to converge
   **   ~~~   ** Air System Named = CENTRAL SYSTEM did not converge for mass flow rate
   **   ~~~   ** Check values should be zero. Most Recent values listed first.
   **   ~~~   ** Demand-to-Supply interface mass flow rate check value iteration history trace: 7.792179E-002,7.792179E-002,7.792179E-002,7.792179E-002,7.792179E-002,7.792179E-002,7.792179E-002,7.792179E-002,7.792179E-002,7.792179E-002,
   **   ~~~   ** Supply-to-demand interface deck 1 mass flow rate check value iteration history trace: 7.792179E-002,7.792179E-002,7.792179E-002,7.792179E-002,7.792179E-002,7.792179E-002,7.792179E-002,7.792179E-002,7.792179E-002,7.792179E-002,
   **   ~~~   ** Air System Named = CENTRAL SYSTEM did not converge for energy
   **   ~~~   ** Check values should be zero. Most Recent values listed first.
   **   ~~~   ** Demand-to-Supply interface energy check value iteration history trace: 1864.532076,1864.532076,1864.532076,1864.532076,1864.532077,1864.532077,1864.532077,1864.532077,1864.532077,1864.532077,
   **   ~~~   ** Supply-to-demand interface deck 1 energy check value iteration history trace: 627.478013,627.478013,627.478013,627.478013,627.478013,627.478013,627.478013,627.478014,627.478014,627.478014,
   ** Warning ** SimHVAC: Maximum iterations (20) exceeded for all HVAC loops, at ANNUAL, 10/14 17:53 - 18:00
   **   ~~~   ** The solution for one or more of the Air Loop HVAC systems did not appear to converge
   **   ~~~   ** Air System Named = CENTRAL SYSTEM did not converge for mass flow rate
   **   ~~~   ** Check values should be zero. Most Recent values listed first.
   **   ~~~   ** Demand-to-Supply interface mass flow rate check value iteration history trace: 6.940615E-002,6.940615E-002,6.940615E-002,6.940615E-002,6.940615E-002,6.940615E-002,6.940615E-002,6.940615E-002,6.940615E-002,6.940615E-002,
   **   ~~~   ** Supply-to-demand interface deck 1 mass flow rate check value iteration history trace: 6.940615E-002,6.940615E-002,6.940615E-002,6.940615E-002,6.940615E-002,6.940615E-002,6.940615E-002,6.940615E-002,6.940615E-002,6.940615E-002,
   **   ~~~   ** Air System Named = CENTRAL SYSTEM did not converge for energy
   **   ~~~   ** Check values should be zero. Most Recent values listed first.
   **   ~~~   ** Demand-to-Supply interface energy check value iteration history trace: 1645.661219,1645.661220,1645.661220,1645.661220,1645.661220,1645.661220,1645.661220,1645.661221,1645.661221,1645.661221,
   **   ~~~   ** Supply-to-demand interface deck 1 energy check value iteration history trace: 798.721045,798.721045,798.721045,798.721045,798.721045,798.721046,798.721046,798.721046,798.721046,798.721046,
   ** Warning ** SimHVAC: Maximum iterations (20) exceeded for all HVAC loops, at ANNUAL, 10/14 19:30 - 19:45
   **   ~~~   ** The solution for one or more of the Air Loop HVAC systems did not appear to converge
   **   ~~~   ** Air System Named = CENTRAL SYSTEM did not converge for mass flow rate
   **   ~~~   ** Check values should be zero. Most Recent values listed first.
   **   ~~~   ** Demand-to-Supply interface mass flow rate check value iteration history trace: 1.584342E-002,1.584342E-002,1.584342E-002,1.584342E-002,1.584342E-002,1.584342E-002,1.584342E-002,1.584342E-002,1.584342E-002,1.584342E-002,
   **   ~~~   ** Supply-to-demand interface deck 1 mass flow rate check value iteration history trace: 1.584342E-002,1.584342E-002,1.584342E-002,1.584342E-002,1.584342E-002,1.584342E-002,1.584342E-002,1.584342E-002,1.584342E-002,1.584342E-002,
   **   ~~~   ** Air System Named = CENTRAL SYSTEM did not converge for energy
   **   ~~~   ** Check values should be zero. Most Recent values listed first.
   **   ~~~   ** Demand-to-Supply interface energy check value iteration history trace: 371.856537,371.856537,371.856537,371.856538,371.856538,371.856538,371.856538,371.856538,371.856538,371.856538,
   **   ~~~   ** Supply-to-demand interface deck 1 energy check value iteration history trace: 172.076552,172.076552,172.076552,172.076552,172.076552,172.076552,172.076552,172.076552,172.076552,172.076552,
   ** Warning ** SimHVAC: Maximum iterations (20) exceeded for all HVAC loops, at ANNUAL, 11/07 08:45 - 09:00
   **   ~~~   ** The solution for one or more of the Air Loop HVAC systems did not appear to converge
   **   ~~~   ** Air System Named = CENTRAL SYSTEM did not converge for mass flow rate
   **   ~~~   ** Check values should be zero. Most Recent values listed first.
   **   ~~~   ** Demand-to-Supply interface mass flow rate check value iteration history trace: 6.232842E-002,6.232842E-002,6.232842E-002,6.232842E-002,6.232842E-002,6.232842E-002,6.232842E-002,6.232842E-002,6.232842E-002,6.232842E-002,
   **   ~~~   ** Supply-to-demand interface deck 1 mass flow rate check value iteration history trace: 6.232842E-002,6.232842E-002,6.232842E-002,6.232842E-002,6.232842E-002,6.232842E-002,6.232842E-002,6.232842E-002,6.232842E-002,6.232842E-002,
   **   ~~~   ** Air System Named = CENTRAL SYSTEM did not converge for energy
   **   ~~~   ** Check values should be zero. Most Recent values listed first.
   **   ~~~   ** Demand-to-Supply interface energy check value iteration history trace: 1235.074039,1235.074039,1235.074039,1235.074039,1235.074039,1235.074039,1235.074039,1235.074039,1235.074039,1235.074039,
   **   ~~~   ** Supply-to-demand interface deck 1 energy check value iteration history trace: 2177.423562,2177.423562,2177.423562,2177.423562,2177.423562,2177.423562,2177.423562,2177.423562,2177.423561,2177.423561,
   ** Warning ** SimHVAC: Maximum iterations (20) exceeded for all HVAC loops, at ANNUAL, 11/09 05:30 - 05:45
   **   ~~~   ** The solution for one or more of the Air Loop HVAC systems did not appear to converge
   **   ~~~   ** Air System Named = CENTRAL SYSTEM did not converge for mass flow rate
   **   ~~~   ** Check values should be zero. Most Recent values listed first.
   **   ~~~   ** Demand-to-Supply interface mass flow rate check value iteration history trace: 2.676475E-002,2.676475E-002,2.676475E-002,2.676475E-002,2.676475E-002,2.676475E-002,2.676475E-002,2.676475E-002,2.676475E-002,2.676475E-002,
   **   ~~~   ** Supply-to-demand interface deck 1 mass flow rate check value iteration history trace: 2.676475E-002,2.676475E-002,2.676475E-002,2.676475E-002,2.676475E-002,2.676475E-002,2.676475E-002,2.676475E-002,2.676475E-002,2.676475E-002,
   **   ~~~   ** Air System Named = CENTRAL SYSTEM did not converge for energy
   **   ~~~   ** Check values should be zero. Most Recent values listed first.
   **   ~~~   ** Demand-to-Supply interface energy check value iteration history trace: 529.690397,529.690397,529.690397,529.690397,529.690397,529.690397,529.690397,529.690397,529.690397,529.690397,
   **   ~~~   ** Supply-to-demand interface deck 1 energy check value iteration history trace: 961.762222,961.762222,961.762222,961.762222,961.762222,961.762221,961.762221,961.762221,961.762221,961.762221,
   ** Warning ** SimHVAC: Maximum iterations (20) exceeded for all HVAC loops, at ANNUAL, 11/13 08:15 - 08:30
   **   ~~~   ** The solution for one or more of the Air Loop HVAC systems did not appear to converge
   **   ~~~   ** Air System Named = CENTRAL SYSTEM did not converge for mass flow rate
   **   ~~~   ** Check values should be zero. Most Recent values listed first.
   **   ~~~   ** Demand-to-Supply interface mass flow rate check value iteration history trace: 1.460955E-002,1.460955E-002,1.460955E-002,1.460955E-002,1.460955E-002,1.460955E-002,1.460955E-002,1.460955E-002,1.460955E-002,1.460955E-002,
   **   ~~~   ** Supply-to-demand interface deck 1 mass flow rate check value iteration history trace: 1.460955E-002,1.460955E-002,1.460955E-002,1.460955E-002,1.460955E-002,1.460955E-002,1.460955E-002,1.460955E-002,1.460955E-002,1.460955E-002,
   **   ~~~   ** Air System Named = CENTRAL SYSTEM did not converge for energy
   **   ~~~   ** Check values should be zero. Most Recent values listed first.
   **   ~~~   ** Demand-to-Supply interface energy check value iteration history trace: 287.974730,287.974730,287.974730,287.974730,287.974730,287.974730,287.974730,287.974730,287.974730,287.974730,
   **   ~~~   ** Supply-to-demand interface deck 1 energy check value iteration history trace: 553.800121,553.800121,553.800121,553.800121,553.800121,553.800121,553.800121,553.800121,553.800121,553.800121,
   ************* Simulation Error Summary *************
   ** Warning ** The following Report Variables were requested but not generated -- check.rdd file
   **   ~~~   ** Either the IDF did not contain these elements, the variable name is misspelled,
   **   ~~~   ** or the requested variable is an advanced output which requires Output : Diagnostics, DisplayAdvancedReportVariables;
   ************* Key=*, VarName=BASEBOARD TOTAL HEATING ENERGY, Frequency=
   ************* Key=*, VarName=WATER HEATER NATURALGAS ENERGY, Frequency=
   ************* Key=*, VarName=COOLING COIL TOTAL HEATING ENERGY, Frequency=
   ************* There are 34 unused schedules in input.
   ************* There are 388 unused week schedules in input.
   ************* There are 396 unused day schedules in input.
   ************* Use Output:Diagnostics,DisplayUnusedSchedules; to see them.
   *************
   ************* ===== Recurring Error Summary =====
   ************* The following recurring error messages occurred.
   *************
   *************  ** Warning ** "TOTAL HOT WATER LOAD" - Target water temperature should be less than or equal to the hot water temperature error continues...
   *************  **   ~~~   **   This error occurred 106119 total times;
   *************  **   ~~~   **   during Warmup 0 times;
   *************  **   ~~~   **   during Sizing 0 times.
   *************  **   ~~~   **   Max=10.124641  Min=3.860251E-004
   *************
   *************
   ************* ===== Final Error Summary =====
   ************* The following error categories occurred.  Consider correcting or noting.
   ************* Nominally Unused Constructions
   ************* ..The nominally unused constructions warning is provided to alert you to potential conditions that can cause
   ************* ..extra time during simulation. Each construction is calculated by the algorithm indicated in the HeatBalanceAlgorithm
   ************* ..object. You may remove the constructions indicated (when you use the DisplayExtraWarnings option).
   *************
   ************* EnergyPlus Warmup Error Summary. During Warmup: 0 Warning; 0 Severe Errors.
   ************* EnergyPlus Sizing Error Summary. During Sizing: 4 Warning; 0 Severe Errors.
   ************* EnergyPlus Completed Successfully-- 106146 Warning; 0 Severe Errors; Elapsed Time=00hr 05min 21.12sec
