Program Version,EnergyPlus, Version 22.2.0-c249759bad, YMD=2023.09.01 19:41,
   ************* Beginning Zone Sizing Calculations
   ** Warning ** ProcessScheduleInput: Schedule:Constant="ALWAYS ON DISCRETE", Schedule Type Limits Name="ONOFF" not found -- will not be validated
   ** Warning ** Foundation:Kiva="KIVA FOUNDATION", no Interior Horizontal Insulation Material Name defined
   **   ~~~   ** Interior Horizontal Insulation Depth will not be used.
   ** Warning ** CheckUsedConstructions: There are 15 nominally unused constructions in input.
   **   ~~~   ** Each Unused construction is shown.
   ************* Construction=INTERIOR FLOOR
   ************* Construction=INTERIOR WINDOW
   ************* Construction=EXTERIOR DOOR
   ************* Construction=INTERIOR DOOR
   ************* Construction=GABLE CONSTRUCTION
   ************* Construction=CRAWL_FLOOR
   ************* Construction=INSULATED PIPE
   ************* Construction=PLAIN PIPE
   ************* Construction=TDD PIPE
   ************* Construction=TDD DOME
   ************* Construction=TDD DIFFUSER
   ************* Construction=CRAWL WALL
   ************* Construction=CEILING-FLOOR-LAYER
   ************* Construction=SLAB CONSTRUCTION W FULL R10 INSULATION
   ************* Construction=SLAB CONSTRUCTION W FULL R5 INSULATION
   ** Warning ** GetDXCoils: Coil:Heating:DX:SingleSpeed="DX_HEATING_COIL" curve values
   **   ~~~   ** ... Defrost Energy Input Ratio Function of Temperature Curve Name = DEFROSTEIR output is not equal to 1.0 (+ or - 10%) at rated conditions.
   **   ~~~   ** ... Curve output at rated conditions = 0.152
   ************* Beginning System Sizing Calculations
   ************* Beginning Plant Sizing Calculations
   ** Warning ** SizeDXCoil Coil:Cooling:DX:SingleSpeed DX_COOLING_COIL
   **   ~~~   ** ...Gross Rated Total Cooling Capacity [W] will be limited by the maximum rated volume flow per rated total capacity ratio.
   **   ~~~   ** ...DX coil volume flow rate ( m3/s ) = 0.477318
   **   ~~~   ** ...Requested capacity ( W ) = 7494.865
   **   ~~~   ** ...Requested flow/capacity ratio ( m3/s/W ) = 6.368E-005
   **   ~~~   ** ...Maximum flow/capacity ratio ( m3/s/W ) = 6.041E-005
   **   ~~~   ** ...Adjusted capacity ( W ) = 7901.309
   ** Warning ** Coil:WaterHeating:AirToWaterHeatPump:Wrapped "HEAT PUMP WATER HEATER EVAPORATOR": Rated air volume flow rate per watt of rated total water heating capacity is out of range
   **   ~~~   ** Min Rated Vol Flow Per Watt=[4.027E-005], Rated Vol Flow Per Watt=[1.510E-004], Max Rated Vol Flow Per Watt=[8.056E-005]. See Input-Output Reference Manual for valid range.
   ************* SizeFan: : Potential issue with equipment sizing for Fan:OnOff HEAT PUMP WATER HEATER FAN
   **   ~~~   ** User-Specified Maximum Flow Rate [m3/s] = 0.22653
   **   ~~~   ** differs from Design Size Maximum Flow Rate [m3/s] = 7.55250E-002
   **   ~~~   ** This may, or may not, indicate mismatched component sizes.
   **   ~~~   ** Verify that the value entered is intended and is consistent with other components.
   ** Warning ** Water heater = WATER HEATER TANK:  Recovery Efficiency and Energy Factor could not be calculated during the test for standard ratings
   **   ~~~   ** Setpoint was never recovered and/or heater never turned on
   ** Warning ** Check input. Pump nominal power or motor efficiency is set to 0, for pump=MAINS PRESSURE
   ** Warning ** Output:Meter: invalid Key Name="ELECTRIC_RANGE:INTERIOREQUIPMENT:ELECTRICITY" - not found.
   ** Warning ** Output:Meter: invalid Key Name="ELECTRIC_DRYER:INTERIOREQUIPMENT:ELECTRICITY" - not found.
   ** Warning ** Output:Meter: invalid Key Name="HEATRECOVERY:ELECTRICITY" - not found.
   ** Warning ** Output:Meter: invalid Key Name="HEATING:NATURALGAS" - not found.
   ** Warning ** Output:Meter: invalid Key Name="WATERSYSTEMS:NATURALGAS" - not found.
   ** Warning ** Output:Meter: invalid Key Name="PROPANE:FACILITY" - not found.
   ** Warning ** Output:Meter: invalid Key Name="HEATING:PROPANE" - not found.
   ************* Testing Individual Branch Integrity
   ************* All Branches passed integrity testing
   ************* Testing Individual Supply Air Path Integrity
   ************* All Supply Air Paths passed integrity testing
   ************* Testing Individual Return Air Path Integrity
   ************* All Return Air Paths passed integrity testing
   ************* No node connection errors were found.
   ************* Beginning Simulation
   ** Warning ** AirflowNetwork::Solver::validate_distribution: Heat pump water heater is simulated along with an AirflowNetwork but is not included in the AirflowNetwork.
   ** Warning ** CalcEquipmentFlowRates: "TOTAL HOT WATER LOAD" - Target water temperature is greater than the hot water temperature by (2.84 C)
   **   ~~~   **  Environment=EXTREME_WINTER, at Simulation time=02/15 06:00 - 06:15
   **   ~~~   ** ...target water temperature     = 53.33 C
   **   ~~~   ** ...hot water temperature        = 50.49 C
   **   ~~~   ** ...Target water temperature should be less than or equal to the hot water temperature. Verify temperature setpoints and schedules.
   ** Warning ** SimHVAC: Maximum iterations (20) exceeded for all HVAC loops, at EXTREME_WINTER, 02/15 14:45 - 14:52
   **   ~~~   ** The solution for one or more of the Air Loop HVAC systems did not appear to converge
   **   ~~~   ** Air System Named = CENTRAL SYSTEM did not converge for mass flow rate
   **   ~~~   ** Check values should be zero. Most Recent values listed first.
   **   ~~~   ** Demand-to-Supply interface mass flow rate check value iteration history trace: 5.407839E-002,5.407839E-002,5.407839E-002,5.407839E-002,5.407839E-002,5.407839E-002,5.407839E-002,5.407839E-002,5.407839E-002,5.407839E-002,
   **   ~~~   ** Supply-to-demand interface deck 1 mass flow rate check value iteration history trace: 5.407839E-002,5.407839E-002,5.407839E-002,5.407839E-002,5.407839E-002,5.407839E-002,5.407839E-002,5.407839E-002,5.407839E-002,5.407839E-002,
   **   ~~~   ** Air System Named = CENTRAL SYSTEM did not converge for energy
   **   ~~~   ** Check values should be zero. Most Recent values listed first.
   **   ~~~   ** Demand-to-Supply interface energy check value iteration history trace: 1069.745635,1069.745635,1069.745635,1069.745635,1069.745635,1069.745635,1069.745635,1069.745635,1069.745635,1069.745635,
   **   ~~~   ** Supply-to-demand interface deck 1 energy check value iteration history trace: 1857.210750,1857.210750,1857.210750,1857.210750,1857.210750,1857.210750,1857.210749,1857.210749,1857.210749,1857.210749,
   ** Warning ** SimHVAC: Maximum iterations (20) exceeded for all HVAC loops, at EXTREME_WINTER, 02/16 07:15 - 07:22
   **   ~~~   ** The solution for one or more of the Air Loop HVAC systems did not appear to converge
   **   ~~~   ** Air System Named = CENTRAL SYSTEM did not converge for mass flow rate
   **   ~~~   ** Check values should be zero. Most Recent values listed first.
   **   ~~~   ** Demand-to-Supply interface mass flow rate check value iteration history trace: 6.510962E-002,6.510962E-002,6.510962E-002,6.510962E-002,6.510962E-002,6.510962E-002,6.510962E-002,6.510962E-002,6.510962E-002,6.510962E-002,
   **   ~~~   ** Supply-to-demand interface deck 1 mass flow rate check value iteration history trace: 6.510962E-002,6.510962E-002,6.510962E-002,6.510962E-002,6.510962E-002,6.510962E-002,6.510962E-002,6.510962E-002,6.510962E-002,6.510962E-002,
   **   ~~~   ** Air System Named = CENTRAL SYSTEM did not converge for energy
   **   ~~~   ** Check values should be zero. Most Recent values listed first.
   **   ~~~   ** Demand-to-Supply interface energy check value iteration history trace: 1291.609659,1291.609659,1291.609659,1291.609659,1291.609659,1291.609659,1291.609659,1291.609659,1291.609659,1291.609659,
   **   ~~~   ** Supply-to-demand interface deck 1 energy check value iteration history trace: 2326.658835,2326.658835,2326.658835,2326.658834,2326.658834,2326.658834,2326.658834,2326.658834,2326.658834,2326.658834,
   ** Warning ** SimHVAC: Maximum iterations (20) exceeded for all HVAC loops, at EXTREME_WINTER, 02/18 06:45 - 07:00
   **   ~~~   ** The solution for one or more of the Air Loop HVAC systems did not appear to converge
   **   ~~~   ** Air System Named = CENTRAL SYSTEM did not converge for mass flow rate
   **   ~~~   ** Check values should be zero. Most Recent values listed first.
   **   ~~~   ** Demand-to-Supply interface mass flow rate check value iteration history trace: 7.087286E-002,7.087286E-002,7.087286E-002,7.087286E-002,7.087286E-002,7.087286E-002,7.087286E-002,7.087286E-002,7.087286E-002,7.087286E-002,
   **   ~~~   ** Supply-to-demand interface deck 1 mass flow rate check value iteration history trace: 7.087286E-002,7.087286E-002,7.087286E-002,7.087286E-002,7.087286E-002,7.087286E-002,7.087286E-002,7.087286E-002,7.087286E-002,7.087286E-002,
   **   ~~~   ** Air System Named = CENTRAL SYSTEM did not converge for energy
   **   ~~~   ** Check values should be zero. Most Recent values listed first.
   **   ~~~   ** Demand-to-Supply interface energy check value iteration history trace: 1404.278306,1404.278306,1404.278306,1404.278306,1404.278306,1404.278306,1404.278306,1404.278306,1404.278306,1404.278306,
   **   ~~~   ** Supply-to-demand interface deck 1 energy check value iteration history trace: 2369.603900,2369.603900,2369.603900,2369.603900,2369.603900,2369.603900,2369.603900,2369.603900,2369.603899,2369.603899,
   ** Warning ** SimHVAC: Maximum iterations (20) exceeded for all HVAC loops, at ANNUAL, 01/05 07:30 - 07:45
   **   ~~~   ** The solution for one or more of the Air Loop HVAC systems did not appear to converge
   **   ~~~   ** Air System Named = CENTRAL SYSTEM did not converge for mass flow rate
   **   ~~~   ** Check values should be zero. Most Recent values listed first.
   **   ~~~   ** Demand-to-Supply interface mass flow rate check value iteration history trace: 6.810391E-002,6.810391E-002,6.810391E-002,6.810391E-002,6.810391E-002,6.810391E-002,6.810391E-002,6.810391E-002,6.810391E-002,6.810391E-002,
   **   ~~~   ** Supply-to-demand interface deck 1 mass flow rate check value iteration history trace: 6.810391E-002,6.810391E-002,6.810391E-002,6.810391E-002,6.810391E-002,6.810391E-002,6.810391E-002,6.810391E-002,6.810391E-002,6.810391E-002,
   **   ~~~   ** Air System Named = CENTRAL SYSTEM did not converge for energy
   **   ~~~   ** Check values should be zero. Most Recent values listed first.
   **   ~~~   ** Demand-to-Supply interface energy check value iteration history trace: 1350.237568,1350.237568,1350.237568,1350.237568,1350.237568,1350.237568,1350.237568,1350.237568,1350.237568,1350.237568,
   **   ~~~   ** Supply-to-demand interface deck 1 energy check value iteration history trace: 2314.042616,2314.042616,2314.042616,2314.042616,2314.042615,2314.042615,2314.042615,2314.042615,2314.042615,2314.042615,
   ** Warning ** SimHVAC: Maximum iterations (20) exceeded for all HVAC loops, at ANNUAL, 02/02 08:05 - 08:10
   **   ~~~   ** The solution for one or more of the Air Loop HVAC systems did not appear to converge
   **   ~~~   ** Air System Named = CENTRAL SYSTEM did not converge for mass flow rate
   **   ~~~   ** Check values should be zero. Most Recent values listed first.
   **   ~~~   ** Demand-to-Supply interface mass flow rate check value iteration history trace: 6.158645E-002,6.158645E-002,6.158645E-002,6.158645E-002,6.158645E-002,6.158645E-002,6.158645E-002,6.158645E-002,6.158645E-002,6.158645E-002,
   **   ~~~   ** Supply-to-demand interface deck 1 mass flow rate check value iteration history trace: 6.158645E-002,6.158645E-002,6.158645E-002,6.158645E-002,6.158645E-002,6.158645E-002,6.158645E-002,6.158645E-002,6.158645E-002,6.158645E-002,
   **   ~~~   ** Air System Named = CENTRAL SYSTEM did not converge for energy
   **   ~~~   ** Check values should be zero. Most Recent values listed first.
   **   ~~~   ** Demand-to-Supply interface energy check value iteration history trace: 1212.848243,1212.848243,1212.848243,1212.848243,1212.848242,1212.848242,1212.848242,1212.848242,1212.848242,1212.848242,
   **   ~~~   ** Supply-to-demand interface deck 1 energy check value iteration history trace: 2098.638832,2098.638832,2098.638832,2098.638832,2098.638832,2098.638832,2098.638832,2098.638832,2098.638832,2098.638831,
   ** Warning ** SimHVAC: Maximum iterations (20) exceeded for all HVAC loops, at ANNUAL, 02/13 08:00 - 08:15
   **   ~~~   ** The solution for one or more of the Air Loop HVAC systems did not appear to converge
   **   ~~~   ** Air System Named = CENTRAL SYSTEM did not converge for mass flow rate
   **   ~~~   ** Check values should be zero. Most Recent values listed first.
   **   ~~~   ** Demand-to-Supply interface mass flow rate check value iteration history trace: 6.119777E-002,6.119777E-002,6.119777E-002,6.119777E-002,6.119777E-002,6.119777E-002,6.119777E-002,6.119777E-002,6.119777E-002,6.119777E-002,
   **   ~~~   ** Supply-to-demand interface deck 1 mass flow rate check value iteration history trace: 6.119777E-002,6.119777E-002,6.119777E-002,6.119777E-002,6.119777E-002,6.119777E-002,6.119777E-002,6.119777E-002,6.119777E-002,6.119777E-002,
   **   ~~~   ** Air System Named = CENTRAL SYSTEM did not converge for energy
   **   ~~~   ** Check values should be zero. Most Recent values listed first.
   **   ~~~   ** Demand-to-Supply interface energy check value iteration history trace: 1211.449322,1211.449322,1211.449322,1211.449322,1211.449322,1211.449322,1211.449321,1211.449321,1211.449321,1211.449321,
   **   ~~~   ** Supply-to-demand interface deck 1 energy check value iteration history trace: 2146.493719,2146.493719,2146.493719,2146.493719,2146.493719,2146.493719,2146.493719,2146.493719,2146.493719,2146.493719,
   ** Warning ** SimHVAC: Maximum iterations (20) exceeded for all HVAC loops, at ANNUAL, 02/15 06:30 - 06:45
   **   ~~~   ** The solution for one or more of the Air Loop HVAC systems did not appear to converge
   **   ~~~   ** Air System Named = CENTRAL SYSTEM did not converge for mass flow rate
   **   ~~~   ** Check values should be zero. Most Recent values listed first.
   **   ~~~   ** Demand-to-Supply interface mass flow rate check value iteration history trace: 5.887359E-002,5.887359E-002,5.887359E-002,5.887359E-002,5.887359E-002,5.887359E-002,5.887359E-002,5.887359E-002,5.887359E-002,5.887359E-002,
   **   ~~~   ** Supply-to-demand interface deck 1 mass flow rate check value iteration history trace: 5.887359E-002,5.887359E-002,5.887359E-002,5.887359E-002,5.887359E-002,5.887359E-002,5.887359E-002,5.887359E-002,5.887359E-002,5.887359E-002,
   **   ~~~   ** Air System Named = CENTRAL SYSTEM did not converge for energy
   **   ~~~   ** Check values should be zero. Most Recent values listed first.
   **   ~~~   ** Demand-to-Supply interface energy check value iteration history trace: 1158.355304,1158.355304,1158.355304,1158.355304,1158.355304,1158.355304,1158.355304,1158.355304,1158.355304,1158.355304,
   **   ~~~   ** Supply-to-demand interface deck 1 energy check value iteration history trace: 2012.721383,2012.721382,2012.721382,2012.721382,2012.721382,2012.721382,2012.721382,2012.721382,2012.721382,2012.721382,
   ** Warning ** SimHVAC: Maximum iterations (20) exceeded for all HVAC loops, at ANNUAL, 02/18 06:30 - 06:45
   **   ~~~   ** The solution for one or more of the Air Loop HVAC systems did not appear to converge
   **   ~~~   ** Air System Named = CENTRAL SYSTEM did not converge for mass flow rate
   **   ~~~   ** Check values should be zero. Most Recent values listed first.
   **   ~~~   ** Demand-to-Supply interface mass flow rate check value iteration history trace: 6.133956E-002,6.133956E-002,6.133956E-002,6.133956E-002,6.133956E-002,6.133956E-002,6.133956E-002,6.133956E-002,6.133956E-002,6.133956E-002,
   **   ~~~   ** Supply-to-demand interface deck 1 mass flow rate check value iteration history trace: 6.133956E-002,6.133956E-002,6.133956E-002,6.133956E-002,6.133956E-002,6.133956E-002,6.133956E-002,6.133956E-002,6.133956E-002,6.133956E-002,
   **   ~~~   ** Air System Named = CENTRAL SYSTEM did not converge for energy
   **   ~~~   ** Check values should be zero. Most Recent values listed first.
   **   ~~~   ** Demand-to-Supply interface energy check value iteration history trace: 1214.022195,1214.022195,1214.022195,1214.022195,1214.022195,1214.022195,1214.022195,1214.022195,1214.022195,1214.022195,
   **   ~~~   ** Supply-to-demand interface deck 1 energy check value iteration history trace: 2040.481610,2040.481610,2040.481610,2040.481610,2040.481610,2040.481610,2040.481610,2040.481610,2040.481610,2040.481609,
   ** Warning ** SimHVAC: Maximum iterations (20) exceeded for all HVAC loops, at ANNUAL, 02/21 07:00 - 07:15
   **   ~~~   ** The solution for one or more of the Air Loop HVAC systems did not appear to converge
   **   ~~~   ** Air System Named = CENTRAL SYSTEM did not converge for mass flow rate
   **   ~~~   ** Check values should be zero. Most Recent values listed first.
   **   ~~~   ** Demand-to-Supply interface mass flow rate check value iteration history trace: 6.679254E-002,6.679254E-002,6.679254E-002,6.679254E-002,6.679254E-002,6.679254E-002,6.679254E-002,6.679254E-002,6.679254E-002,6.679254E-002,
   **   ~~~   ** Supply-to-demand interface deck 1 mass flow rate check value iteration history trace: 6.679254E-002,6.679254E-002,6.679254E-002,6.679254E-002,6.679254E-002,6.679254E-002,6.679254E-002,6.679254E-002,6.679254E-002,6.679254E-002,
   **   ~~~   ** Air System Named = CENTRAL SYSTEM did not converge for energy
   **   ~~~   ** Check values should be zero. Most Recent values listed first.
   **   ~~~   ** Demand-to-Supply interface energy check value iteration history trace: 1323.493314,1323.493314,1323.493314,1323.493314,1323.493314,1323.493314,1323.493314,1323.493314,1323.493314,1323.493313,
   **   ~~~   ** Supply-to-demand interface deck 1 energy check value iteration history trace: 2269.898923,2269.898923,2269.898923,2269.898923,2269.898923,2269.898923,2269.898923,2269.898923,2269.898922,2269.898922,
   ** Warning ** SimHVAC: Maximum iterations (20) exceeded for all HVAC loops, at ANNUAL, 03/02 08:19 - 08:22
   **   ~~~   ** The solution for one or more of the Air Loop HVAC systems did not appear to converge
   **   ~~~   ** Air System Named = CENTRAL SYSTEM did not converge for mass flow rate
   **   ~~~   ** Check values should be zero. Most Recent values listed first.
   **   ~~~   ** Demand-to-Supply interface mass flow rate check value iteration history trace: 5.927137E-002,5.927137E-002,5.927137E-002,5.927137E-002,5.927137E-002,5.927137E-002,5.927137E-002,5.927137E-002,5.927137E-002,5.927137E-002,
   **   ~~~   ** Supply-to-demand interface deck 1 mass flow rate check value iteration history trace: 5.927137E-002,5.927137E-002,5.927137E-002,5.927137E-002,5.927137E-002,5.927137E-002,5.927137E-002,5.927137E-002,5.927137E-002,5.927137E-002,
   **   ~~~   ** Air System Named = CENTRAL SYSTEM did not converge for energy
   **   ~~~   ** Check values should be zero. Most Recent values listed first.
   **   ~~~   ** Demand-to-Supply interface energy check value iteration history trace: 1166.996695,1166.996695,1166.996695,1166.996695,1166.996695,1166.996695,1166.996694,1166.996694,1166.996694,1166.996694,
   **   ~~~   ** Supply-to-demand interface deck 1 energy check value iteration history trace: 2117.086156,2117.086156,2117.086156,2117.086155,2117.086155,2117.086155,2117.086154,2117.086154,2117.086154,2117.086153,
   **   ~~~   ** Node named ZONE INLET NODE shows oscillating temperatures across iterations with a repeated value of 35.546346
   **   ~~~   ** Node named ZONE INLET NODE temperature [C] iteration history trace (most recent first): 35.546346,35.546346,35.546345,35.546345,35.546345,35.546345,35.546344,35.546344,35.546344,35.546344,
   ** Warning ** SimHVAC: Maximum iterations (20) exceeded for all HVAC loops, at ANNUAL, 03/28 06:30 - 06:35
   **   ~~~   ** The solution for one or more of the Air Loop HVAC systems did not appear to converge
   **   ~~~   ** Air System Named = CENTRAL SYSTEM did not converge for mass flow rate
   **   ~~~   ** Check values should be zero. Most Recent values listed first.
   **   ~~~   ** Demand-to-Supply interface mass flow rate check value iteration history trace: 9.458309E-002,9.458309E-002,9.458309E-002,9.458309E-002,9.458309E-002,9.458309E-002,9.458309E-002,9.458309E-002,9.458309E-002,9.458309E-002,
   **   ~~~   ** Supply-to-demand interface deck 1 mass flow rate check value iteration history trace: 9.458309E-002,9.458309E-002,9.458309E-002,9.458309E-002,9.458309E-002,9.458309E-002,9.458309E-002,9.458309E-002,9.458309E-002,9.458309E-002,
   **   ~~~   ** Air System Named = CENTRAL SYSTEM did not converge for energy
   **   ~~~   ** Check values should be zero. Most Recent values listed first.
   **   ~~~   ** Demand-to-Supply interface energy check value iteration history trace: 1874.014716,1874.014715,1874.014715,1874.014715,1874.014715,1874.014715,1874.014715,1874.014715,1874.014715,1874.014715,
   **   ~~~   ** Supply-to-demand interface deck 1 energy check value iteration history trace: 2894.726727,2894.726726,2894.726726,2894.726726,2894.726726,2894.726726,2894.726726,2894.726725,2894.726725,2894.726725,
   ** Warning ** SimHVAC: Maximum iterations (20) exceeded for all HVAC loops, at ANNUAL, 03/28 07:24 - 07:26
   **   ~~~   ** The solution for one or more of the Air Loop HVAC systems did not appear to converge
   **   ~~~   ** Air System Named = CENTRAL SYSTEM did not converge for mass flow rate
   **   ~~~   ** Check values should be zero. Most Recent values listed first.
   **   ~~~   ** Demand-to-Supply interface mass flow rate check value iteration history trace: 7.097979E-002,7.097979E-002,7.097979E-002,7.097979E-002,7.097979E-002,7.097979E-002,7.097979E-002,7.097979E-002,7.097979E-002,7.097979E-002,
   **   ~~~   ** Supply-to-demand interface deck 1 mass flow rate check value iteration history trace: 7.097979E-002,7.097979E-002,7.097979E-002,7.097979E-002,7.097979E-002,7.097979E-002,7.097979E-002,7.097979E-002,7.097979E-002,7.097979E-002,
   **   ~~~   ** Air System Named = CENTRAL SYSTEM did not converge for energy
   **   ~~~   ** Check values should be zero. Most Recent values listed first.
   **   ~~~   ** Demand-to-Supply interface energy check value iteration history trace: 1403.714885,1403.714885,1403.714885,1403.714884,1403.714884,1403.714884,1403.714884,1403.714884,1403.714884,1403.714884,
   **   ~~~   ** Supply-to-demand interface deck 1 energy check value iteration history trace: 2399.846599,2399.846599,2399.846599,2399.846599,2399.846599,2399.846599,2399.846599,2399.846599,2399.846599,2399.846598,
   ** Warning ** SimHVAC: Maximum iterations (20) exceeded for all HVAC loops, at ANNUAL, 04/04 22:38 - 22:45
   **   ~~~   ** The solution for one or more of the Air Loop HVAC systems did not appear to converge
   **   ~~~   ** Air System Named = CENTRAL SYSTEM did not converge for mass flow rate
   **   ~~~   ** Check values should be zero. Most Recent values listed first.
   **   ~~~   ** Demand-to-Supply interface mass flow rate check value iteration history trace: 4.773893E-002,4.773893E-002,4.773893E-002,4.773893E-002,4.773893E-002,4.773893E-002,4.773893E-002,4.773893E-002,4.773893E-002,4.773893E-002,
   **   ~~~   ** Supply-to-demand interface deck 1 mass flow rate check value iteration history trace: 4.773893E-002,4.773893E-002,4.773893E-002,4.773893E-002,4.773893E-002,4.773893E-002,4.773893E-002,4.773893E-002,4.773893E-002,4.773893E-002,
   **   ~~~   ** Air System Named = CENTRAL SYSTEM did not converge for energy
   **   ~~~   ** Check values should be zero. Most Recent values listed first.
   **   ~~~   ** Demand-to-Supply interface energy check value iteration history trace: 1182.803703,1182.803703,1182.803703,1182.803703,1182.803704,1182.803704,1182.803704,1182.803704,1182.803705,1182.803705,
   **   ~~~   ** Supply-to-demand interface deck 1 energy check value iteration history trace: 542.198419,542.198419,542.198419,542.198420,542.198420,542.198420,542.198420,542.198420,542.198420,542.198420,
   ** Warning ** SimHVAC: Maximum iterations (20) exceeded for all HVAC loops, at ANNUAL, 04/04 23:45 - 24:00
   **   ~~~   ** The solution for one or more of the Air Loop HVAC systems did not appear to converge
   **   ~~~   ** Air System Named = CENTRAL SYSTEM did not converge for mass flow rate
   **   ~~~   ** Check values should be zero. Most Recent values listed first.
   **   ~~~   ** Demand-to-Supply interface mass flow rate check value iteration history trace: 6.373001E-002,6.373001E-002,6.373001E-002,6.373001E-002,6.373001E-002,6.373001E-002,6.373001E-002,6.373001E-002,6.373001E-002,6.373001E-002,
   **   ~~~   ** Supply-to-demand interface deck 1 mass flow rate check value iteration history trace: 6.373001E-002,6.373001E-002,6.373001E-002,6.373001E-002,6.373001E-002,6.373001E-002,6.373001E-002,6.373001E-002,6.373001E-002,6.373001E-002,
   **   ~~~   ** Air System Named = CENTRAL SYSTEM did not converge for energy
   **   ~~~   ** Check values should be zero. Most Recent values listed first.
   **   ~~~   ** Demand-to-Supply interface energy check value iteration history trace: 1589.234429,1589.234429,1589.234430,1589.234430,1589.234430,1589.234430,1589.234431,1589.234431,1589.234431,1589.234431,
   **   ~~~   ** Supply-to-demand interface deck 1 energy check value iteration history trace: 745.119820,745.119820,745.119820,745.119820,745.119820,745.119820,745.119820,745.119821,745.119821,745.119821,
   ************* Simulation Error Summary *************
   ** Warning ** The following Report Variables were requested but not generated -- check.rdd file
   **   ~~~   ** Either the IDF did not contain these elements, the variable name is misspelled,
   **   ~~~   ** or the requested variable is an advanced output which requires Output : Diagnostics, DisplayAdvancedReportVariables;
   ************* Key=*, VarName=BASEBOARD TOTAL HEATING ENERGY, Frequency=
   ************* Key=*, VarName=WATER HEATER NATURALGAS ENERGY, Frequency=
   ************* Key=*, VarName=COOLING COIL TOTAL HEATING ENERGY, Frequency=
   ************* There are 34 unused schedules in input.
   ************* There are 388 unused week schedules in input.
   ************* There are 396 unused day schedules in input.
   ************* Use Output:Diagnostics,DisplayUnusedSchedules; to see them.
   *************
   ************* ===== Recurring Error Summary =====
   ************* The following recurring error messages occurred.
   *************
   *************  ** Warning ** "TOTAL HOT WATER LOAD" - Target water temperature should be less than or equal to the hot water temperature error continues...
   *************  **   ~~~   **   This error occurred 185667 total times;
   *************  **   ~~~   **   during Warmup 0 times;
   *************  **   ~~~   **   during Sizing 0 times.
   *************  **   ~~~   **   Max=10.658316  Min=3.380419E-004
   *************
   *************  ** Warning ** SimHVAC: Exceeding Maximum iterations for all HVAC loops, during ANNUAL continues
   *************  **   ~~~   **   This error occurred 6 total times;
   *************  **   ~~~   **   during Warmup 0 times;
   *************  **   ~~~   **   during Sizing 0 times.
   *************
   *************
   ************* ===== Final Error Summary =====
   ************* The following error categories occurred.  Consider correcting or noting.
   ************* Nominally Unused Constructions
   ************* ..The nominally unused constructions warning is provided to alert you to potential conditions that can cause
   ************* ..extra time during simulation. Each construction is calculated by the algorithm indicated in the HeatBalanceAlgorithm
   ************* ..object. You may remove the constructions indicated (when you use the DisplayExtraWarnings option).
   *************
   ************* EnergyPlus Warmup Error Summary. During Warmup: 1 Warning; 0 Severe Errors.
   ************* EnergyPlus Sizing Error Summary. During Sizing: 4 Warning; 0 Severe Errors.
   ************* EnergyPlus Completed Successfully-- 185705 Warning; 0 Severe Errors; Elapsed Time=00hr 02min  0.83sec
