Program Version,EnergyPlus, Version 22.2.0-c249759bad, YMD=2023.09.01 19:31,
   ************* Beginning Zone Sizing Calculations
   ** Warning ** ProcessScheduleInput: Schedule:Constant="ALWAYS ON DISCRETE", Schedule Type Limits Name="ONOFF" not found -- will not be validated
   ** Warning ** Foundation:Kiva="KIVA FOUNDATION", no Interior Horizontal Insulation Material Name defined
   **   ~~~   ** Interior Horizontal Insulation Depth will not be used.
   ** Warning ** CheckUsedConstructions: There are 15 nominally unused constructions in input.
   **   ~~~   ** Each Unused construction is shown.
   ************* Construction=INTERIOR FLOOR
   ************* Construction=INTERIOR WINDOW
   ************* Construction=EXTERIOR DOOR
   ************* Construction=INTERIOR DOOR
   ************* Construction=GABLE CONSTRUCTION
   ************* Construction=CRAWL_FLOOR
   ************* Construction=INSULATED PIPE
   ************* Construction=PLAIN PIPE
   ************* Construction=TDD PIPE
   ************* Construction=TDD DOME
   ************* Construction=TDD DIFFUSER
   ************* Construction=CRAWL WALL
   ************* Construction=CEILING-FLOOR-LAYER
   ************* Construction=SLAB CONSTRUCTION W FULL R10 INSULATION
   ************* Construction=SLAB CONSTRUCTION W FULL R5 INSULATION
   ** Warning ** GetDXCoils: Coil:Heating:DX:SingleSpeed="DX_HEATING_COIL" curve values
   **   ~~~   ** ... Defrost Energy Input Ratio Function of Temperature Curve Name = DEFROSTEIR output is not equal to 1.0 (+ or - 10%) at rated conditions.
   **   ~~~   ** ... Curve output at rated conditions = 0.152
   ************* Beginning System Sizing Calculations
   ************* Beginning Plant Sizing Calculations
   ** Warning ** Coil:WaterHeating:AirToWaterHeatPump:Wrapped "HEAT PUMP WATER HEATER EVAPORATOR": Rated air volume flow rate per watt of rated total water heating capacity is out of range
   **   ~~~   ** Min Rated Vol Flow Per Watt=[4.027E-005], Rated Vol Flow Per Watt=[1.510E-004], Max Rated Vol Flow Per Watt=[8.056E-005]. See Input-Output Reference Manual for valid range.
   ************* SizeFan: : Potential issue with equipment sizing for Fan:OnOff HEAT PUMP WATER HEATER FAN
   **   ~~~   ** User-Specified Maximum Flow Rate [m3/s] = 0.22653
   **   ~~~   ** differs from Design Size Maximum Flow Rate [m3/s] = 7.55250E-002
   **   ~~~   ** This may, or may not, indicate mismatched component sizes.
   **   ~~~   ** Verify that the value entered is intended and is consistent with other components.
   ** Warning ** Water heater = WATER HEATER TANK:  Recovery Efficiency and Energy Factor could not be calculated during the test for standard ratings
   **   ~~~   ** Setpoint was never recovered and/or heater never turned on
   ** Warning ** Check input. Pump nominal power or motor efficiency is set to 0, for pump=MAINS PRESSURE
   ** Warning ** Output:Meter: invalid Key Name="ELECTRIC_RANGE:INTERIOREQUIPMENT:ELECTRICITY" - not found.
   ** Warning ** Output:Meter: invalid Key Name="ELECTRIC_DRYER:INTERIOREQUIPMENT:ELECTRICITY" - not found.
   ** Warning ** Output:Meter: invalid Key Name="HEATRECOVERY:ELECTRICITY" - not found.
   ** Warning ** Output:Meter: invalid Key Name="HEATING:NATURALGAS" - not found.
   ** Warning ** Output:Meter: invalid Key Name="WATERSYSTEMS:NATURALGAS" - not found.
   ** Warning ** Output:Meter: invalid Key Name="PROPANE:FACILITY" - not found.
   ** Warning ** Output:Meter: invalid Key Name="HEATING:PROPANE" - not found.
   ************* Testing Individual Branch Integrity
   ************* All Branches passed integrity testing
   ************* Testing Individual Supply Air Path Integrity
   ************* All Supply Air Paths passed integrity testing
   ************* Testing Individual Return Air Path Integrity
   ************* All Return Air Paths passed integrity testing
   ************* No node connection errors were found.
   ************* Beginning Simulation
   ** Warning ** AirflowNetwork::Solver::validate_distribution: Heat pump water heater is simulated along with an AirflowNetwork but is not included in the AirflowNetwork.
   ** Warning ** CalcEquipmentFlowRates: "TOTAL HOT WATER LOAD" - Target water temperature is greater than the hot water temperature by (0.65 C)
   **   ~~~   **  Environment=EXTREME_WINTER, at Simulation time=01/06 06:00 - 06:15
   **   ~~~   ** ...target water temperature     = 53.33 C
   **   ~~~   ** ...hot water temperature        = 52.68 C
   **   ~~~   ** ...Target water temperature should be less than or equal to the hot water temperature. Verify temperature setpoints and schedules.
   ** Warning ** SimHVAC: Maximum iterations (20) exceeded for all HVAC loops, at ANNUAL, 01/15 00:00 - 00:15
   **   ~~~   ** The solution for one or more of the Air Loop HVAC systems did not appear to converge
   **   ~~~   ** Air System Named = CENTRAL SYSTEM did not converge for mass flow rate
   **   ~~~   ** Check values should be zero. Most Recent values listed first.
   **   ~~~   ** Demand-to-Supply interface mass flow rate check value iteration history trace: 3.086005E-002,3.086005E-002,3.086005E-002,3.086005E-002,3.086005E-002,3.086005E-002,3.086005E-002,3.086005E-002,3.086005E-002,3.086005E-002,
   **   ~~~   ** Supply-to-demand interface deck 1 mass flow rate check value iteration history trace: 3.086005E-002,3.086005E-002,3.086005E-002,3.086005E-002,3.086005E-002,3.086005E-002,3.086005E-002,3.086005E-002,3.086005E-002,3.086005E-002,
   **   ~~~   ** Air System Named = CENTRAL SYSTEM did not converge for energy
   **   ~~~   ** Check values should be zero. Most Recent values listed first.
   **   ~~~   ** Demand-to-Supply interface energy check value iteration history trace: 577.595694,577.595694,577.595694,577.595694,577.595694,577.595694,577.595694,577.595694,577.595694,577.595694,
   **   ~~~   ** Supply-to-demand interface deck 1 energy check value iteration history trace: 1002.331033,1002.331033,1002.331032,1002.331032,1002.331032,1002.331032,1002.331032,1002.331032,1002.331032,1002.331032,
   ** Warning ** SimHVAC: Maximum iterations (20) exceeded for all HVAC loops, at ANNUAL, 01/22 10:15 - 10:20
   **   ~~~   ** The solution for one or more of the Air Loop HVAC systems did not appear to converge
   **   ~~~   ** Air System Named = CENTRAL SYSTEM did not converge for mass flow rate
   **   ~~~   ** Check values should be zero. Most Recent values listed first.
   **   ~~~   ** Demand-to-Supply interface mass flow rate check value iteration history trace: 6.155302E-002,6.155302E-002,6.155302E-002,6.155302E-002,6.155302E-002,6.155302E-002,6.155302E-002,6.155302E-002,6.155302E-002,6.155302E-002,
   **   ~~~   ** Supply-to-demand interface deck 1 mass flow rate check value iteration history trace: 6.155302E-002,6.155302E-002,6.155302E-002,6.155302E-002,6.155302E-002,6.155302E-002,6.155302E-002,6.155302E-002,6.155302E-002,6.155302E-002,
   **   ~~~   ** Air System Named = CENTRAL SYSTEM did not converge for energy
   **   ~~~   ** Check values should be zero. Most Recent values listed first.
   **   ~~~   ** Demand-to-Supply interface energy check value iteration history trace: 1206.004522,1206.004522,1206.004522,1206.004522,1206.004522,1206.004522,1206.004522,1206.004522,1206.004522,1206.004521,
   **   ~~~   ** Supply-to-demand interface deck 1 energy check value iteration history trace: 2264.384815,2264.384815,2264.384815,2264.384815,2264.384815,2264.384815,2264.384814,2264.384814,2264.384814,2264.384814,
   ** Warning ** SimHVAC: Maximum iterations (20) exceeded for all HVAC loops, at ANNUAL, 01/26 07:45 - 07:50
   **   ~~~   ** The solution for one or more of the Air Loop HVAC systems did not appear to converge
   **   ~~~   ** Air System Named = CENTRAL SYSTEM did not converge for mass flow rate
   **   ~~~   ** Check values should be zero. Most Recent values listed first.
   **   ~~~   ** Demand-to-Supply interface mass flow rate check value iteration history trace: 6.799289E-002,6.799289E-002,6.799289E-002,6.799289E-002,6.799289E-002,6.799289E-002,6.799289E-002,6.799289E-002,6.799289E-002,6.799289E-002,
   **   ~~~   ** Supply-to-demand interface deck 1 mass flow rate check value iteration history trace: 6.799289E-002,6.799289E-002,6.799289E-002,6.799289E-002,6.799289E-002,6.799289E-002,6.799289E-002,6.799289E-002,6.799289E-002,6.799289E-002,
   **   ~~~   ** Air System Named = CENTRAL SYSTEM did not converge for energy
   **   ~~~   ** Check values should be zero. Most Recent values listed first.
   **   ~~~   ** Demand-to-Supply interface energy check value iteration history trace: 1347.266525,1347.266525,1347.266525,1347.266525,1347.266525,1347.266525,1347.266525,1347.266525,1347.266524,1347.266524,
   **   ~~~   ** Supply-to-demand interface deck 1 energy check value iteration history trace: 2306.546729,2306.546729,2306.546729,2306.546729,2306.546729,2306.546729,2306.546729,2306.546728,2306.546728,2306.546728,
   ** Warning ** SimHVAC: Maximum iterations (20) exceeded for all HVAC loops, at ANNUAL, 02/07 09:13 - 09:15
   **   ~~~   ** The solution for one or more of the Air Loop HVAC systems did not appear to converge
   **   ~~~   ** Air System Named = CENTRAL SYSTEM did not converge for mass flow rate
   **   ~~~   ** Check values should be zero. Most Recent values listed first.
   **   ~~~   ** Demand-to-Supply interface mass flow rate check value iteration history trace: 5.021551E-002,5.021551E-002,5.021551E-002,5.021551E-002,5.021551E-002,5.021551E-002,5.021551E-002,5.021551E-002,5.021551E-002,5.021551E-002,
   **   ~~~   ** Supply-to-demand interface deck 1 mass flow rate check value iteration history trace: 5.021551E-002,5.021551E-002,5.021551E-002,5.021551E-002,5.021551E-002,5.021551E-002,5.021551E-002,5.021551E-002,5.021551E-002,5.021551E-002,
   **   ~~~   ** Air System Named = CENTRAL SYSTEM did not converge for energy
   **   ~~~   ** Check values should be zero. Most Recent values listed first.
   **   ~~~   ** Demand-to-Supply interface energy check value iteration history trace: 992.486593,992.486593,992.486593,992.486593,992.486593,992.486593,992.486593,992.486593,992.486593,992.486593,
   **   ~~~   ** Supply-to-demand interface deck 1 energy check value iteration history trace: 1841.929067,1841.929067,1841.929067,1841.929067,1841.929067,1841.929067,1841.929067,1841.929067,1841.929067,1841.929067,
   ** Warning ** SimHVAC: Maximum iterations (20) exceeded for all HVAC loops, at ANNUAL, 03/26 09:00 - 09:15
   **   ~~~   ** The solution for one or more of the Air Loop HVAC systems did not appear to converge
   **   ~~~   ** Air System Named = CENTRAL SYSTEM did not converge for mass flow rate
   **   ~~~   ** Check values should be zero. Most Recent values listed first.
   **   ~~~   ** Demand-to-Supply interface mass flow rate check value iteration history trace: 5.822173E-002,5.822173E-002,5.822173E-002,5.822173E-002,5.822173E-002,5.822173E-002,5.822173E-002,5.822173E-002,5.822173E-002,5.822173E-002,
   **   ~~~   ** Supply-to-demand interface deck 1 mass flow rate check value iteration history trace: 5.822173E-002,5.822173E-002,5.822173E-002,5.822173E-002,5.822173E-002,5.822173E-002,5.822173E-002,5.822173E-002,5.822173E-002,5.822173E-002,
   **   ~~~   ** Air System Named = CENTRAL SYSTEM did not converge for energy
   **   ~~~   ** Check values should be zero. Most Recent values listed first.
   **   ~~~   ** Demand-to-Supply interface energy check value iteration history trace: 1380.367120,1380.367120,1380.367121,1380.367121,1380.367121,1380.367121,1380.367122,1380.367122,1380.367122,1380.367122,
   **   ~~~   ** Supply-to-demand interface deck 1 energy check value iteration history trace: 758.208239,758.208239,758.208240,758.208240,758.208240,758.208240,758.208240,758.208240,758.208240,758.208241,
   ** Warning ** SimHVAC: Maximum iterations (20) exceeded for all HVAC loops, at ANNUAL, 03/29 05:08 - 05:15
   **   ~~~   ** The solution for one or more of the Air Loop HVAC systems did not appear to converge
   **   ~~~   ** Air System Named = CENTRAL SYSTEM did not converge for mass flow rate
   **   ~~~   ** Check values should be zero. Most Recent values listed first.
   **   ~~~   ** Demand-to-Supply interface mass flow rate check value iteration history trace: 6.003041E-002,6.003041E-002,6.003041E-002,6.003041E-002,6.003041E-002,6.003041E-002,6.003041E-002,6.003041E-002,6.003041E-002,6.003041E-002,
   **   ~~~   ** Supply-to-demand interface deck 1 mass flow rate check value iteration history trace: 6.003041E-002,6.003041E-002,6.003041E-002,6.003041E-002,6.003041E-002,6.003041E-002,6.003041E-002,6.003041E-002,6.003041E-002,6.003041E-002,
   **   ~~~   ** Air System Named = CENTRAL SYSTEM did not converge for energy
   **   ~~~   ** Check values should be zero. Most Recent values listed first.
   **   ~~~   ** Demand-to-Supply interface energy check value iteration history trace: 1439.484808,1439.484809,1439.484809,1439.484810,1439.484810,1439.484811,1439.484811,1439.484812,1439.484812,1439.484813,
   **   ~~~   ** Supply-to-demand interface deck 1 energy check value iteration history trace: 796.939586,796.939586,796.939586,796.939587,796.939587,796.939587,796.939587,796.939588,796.939588,796.939588,
   ** Warning ** SimHVAC: Maximum iterations (20) exceeded for all HVAC loops, at ANNUAL, 11/27 08:12 - 08:15
   **   ~~~   ** The solution for one or more of the Air Loop HVAC systems did not appear to converge
   **   ~~~   ** Air System Named = CENTRAL SYSTEM did not converge for mass flow rate
   **   ~~~   ** Check values should be zero. Most Recent values listed first.
   **   ~~~   ** Demand-to-Supply interface mass flow rate check value iteration history trace: 6.604984E-002,6.604984E-002,6.604984E-002,6.604984E-002,6.604984E-002,6.604984E-002,6.604984E-002,6.604984E-002,6.604984E-002,6.604984E-002,
   **   ~~~   ** Supply-to-demand interface deck 1 mass flow rate check value iteration history trace: 6.604984E-002,6.604984E-002,6.604984E-002,6.604984E-002,6.604984E-002,6.604984E-002,6.604984E-002,6.604984E-002,6.604984E-002,6.604984E-002,
   **   ~~~   ** Air System Named = CENTRAL SYSTEM did not converge for energy
   **   ~~~   ** Check values should be zero. Most Recent values listed first.
   **   ~~~   ** Demand-to-Supply interface energy check value iteration history trace: 1305.791628,1305.791628,1305.791628,1305.791628,1305.791628,1305.791628,1305.791628,1305.791628,1305.791628,1305.791628,
   **   ~~~   ** Supply-to-demand interface deck 1 energy check value iteration history trace: 2217.673834,2217.673834,2217.673834,2217.673834,2217.673834,2217.673834,2217.673834,2217.673834,2217.673834,2217.673833,
   ** Warning ** SimHVAC: Maximum iterations (20) exceeded for all HVAC loops, at ANNUAL, 11/30 16:45 - 17:00
   **   ~~~   ** The solution for one or more of the Air Loop HVAC systems did not appear to converge
   **   ~~~   ** Air System Named = CENTRAL SYSTEM did not converge for mass flow rate
   **   ~~~   ** Check values should be zero. Most Recent values listed first.
   **   ~~~   ** Demand-to-Supply interface mass flow rate check value iteration history trace: 6.916676E-002,6.916676E-002,6.916676E-002,6.916676E-002,6.916676E-002,6.916676E-002,6.916676E-002,6.916676E-002,6.916676E-002,6.916676E-002,
   **   ~~~   ** Supply-to-demand interface deck 1 mass flow rate check value iteration history trace: 6.916676E-002,6.916676E-002,6.916676E-002,6.916676E-002,6.916676E-002,6.916676E-002,6.916676E-002,6.916676E-002,6.916676E-002,6.916676E-002,
   **   ~~~   ** Air System Named = CENTRAL SYSTEM did not converge for energy
   **   ~~~   ** Check values should be zero. Most Recent values listed first.
   **   ~~~   ** Demand-to-Supply interface energy check value iteration history trace: 1648.572843,1648.572843,1648.572843,1648.572843,1648.572843,1648.572843,1648.572844,1648.572844,1648.572844,1648.572844,
   **   ~~~   ** Supply-to-demand interface deck 1 energy check value iteration history trace: 934.594271,934.594271,934.594271,934.594272,934.594272,934.594272,934.594272,934.594272,934.594272,934.594272,
   ** Warning ** SimHVAC: Maximum iterations (20) exceeded for all HVAC loops, at ANNUAL, 12/01 19:05 - 19:10
   **   ~~~   ** The solution for one or more of the Air Loop HVAC systems did not appear to converge
   **   ~~~   ** Air System Named = CENTRAL SYSTEM did not converge for mass flow rate
   **   ~~~   ** Check values should be zero. Most Recent values listed first.
   **   ~~~   ** Demand-to-Supply interface mass flow rate check value iteration history trace: 0.115235,0.115235,0.115235,0.115235,0.115235,0.115235,0.115235,0.115235,0.115235,0.115235,
   **   ~~~   ** Supply-to-demand interface deck 1 mass flow rate check value iteration history trace: 0.115235,0.115235,0.115235,0.115235,0.115235,0.115235,0.115235,0.115235,0.115235,0.115235,
   **   ~~~   ** Air System Named = CENTRAL SYSTEM did not converge for energy
   **   ~~~   ** Check values should be zero. Most Recent values listed first.
   **   ~~~   ** Demand-to-Supply interface energy check value iteration history trace: 2712.238272,2712.238273,2712.238273,2712.238273,2712.238273,2712.238273,2712.238273,2712.238273,2712.238274,2712.238274,
   **   ~~~   ** Supply-to-demand interface deck 1 energy check value iteration history trace: 1065.105158,1065.105158,1065.105158,1065.105158,1065.105158,1065.105158,1065.105158,1065.105159,1065.105159,1065.105159,
   ** Warning ** SimHVAC: Maximum iterations (20) exceeded for all HVAC loops, at ANNUAL, 12/11 18:00 - 18:15
   **   ~~~   ** The solution for one or more of the Air Loop HVAC systems did not appear to converge
   **   ~~~   ** Air System Named = CENTRAL SYSTEM did not converge for mass flow rate
   **   ~~~   ** Check values should be zero. Most Recent values listed first.
   **   ~~~   ** Demand-to-Supply interface mass flow rate check value iteration history trace: 6.500975E-002,6.500975E-002,6.500975E-002,6.500975E-002,6.500975E-002,6.500975E-002,6.500975E-002,6.500975E-002,6.500975E-002,6.500975E-002,
   **   ~~~   ** Supply-to-demand interface deck 1 mass flow rate check value iteration history trace: 6.500975E-002,6.500975E-002,6.500975E-002,6.500975E-002,6.500975E-002,6.500975E-002,6.500975E-002,6.500975E-002,6.500975E-002,6.500975E-002,
   **   ~~~   ** Air System Named = CENTRAL SYSTEM did not converge for energy
   **   ~~~   ** Check values should be zero. Most Recent values listed first.
   **   ~~~   ** Demand-to-Supply interface energy check value iteration history trace: 1275.877914,1275.877914,1275.877914,1275.877914,1275.877914,1275.877913,1275.877913,1275.877913,1275.877913,1275.877913,
   **   ~~~   ** Supply-to-demand interface deck 1 energy check value iteration history trace: 2234.253006,2234.253006,2234.253006,2234.253006,2234.253006,2234.253006,2234.253006,2234.253005,2234.253005,2234.253005,
   ** Warning ** SimHVAC: Maximum iterations (20) exceeded for all HVAC loops, at ANNUAL, 12/27 07:00 - 07:15
   **   ~~~   ** The solution for one or more of the Air Loop HVAC systems did not appear to converge
   **   ~~~   ** Air System Named = CENTRAL SYSTEM did not converge for mass flow rate
   **   ~~~   ** Check values should be zero. Most Recent values listed first.
   **   ~~~   ** Demand-to-Supply interface mass flow rate check value iteration history trace: 6.618138E-002,6.618138E-002,6.618138E-002,6.618138E-002,6.618138E-002,6.618138E-002,6.618138E-002,6.618138E-002,6.618138E-002,6.618138E-002,
   **   ~~~   ** Supply-to-demand interface deck 1 mass flow rate check value iteration history trace: 6.618138E-002,6.618138E-002,6.618138E-002,6.618138E-002,6.618138E-002,6.618138E-002,6.618138E-002,6.618138E-002,6.618138E-002,6.618138E-002,
   **   ~~~   ** Air System Named = CENTRAL SYSTEM did not converge for energy
   **   ~~~   ** Check values should be zero. Most Recent values listed first.
   **   ~~~   ** Demand-to-Supply interface energy check value iteration history trace: 1310.526545,1310.526545,1310.526545,1310.526545,1310.526545,1310.526545,1310.526545,1310.526545,1310.526545,1310.526544,
   **   ~~~   ** Supply-to-demand interface deck 1 energy check value iteration history trace: 2219.597707,2219.597707,2219.597706,2219.597706,2219.597706,2219.597706,2219.597706,2219.597706,2219.597706,2219.597706,
   ************* Simulation Error Summary *************
   ** Warning ** The following Report Variables were requested but not generated -- check.rdd file
   **   ~~~   ** Either the IDF did not contain these elements, the variable name is misspelled,
   **   ~~~   ** or the requested variable is an advanced output which requires Output : Diagnostics, DisplayAdvancedReportVariables;
   ************* Key=*, VarName=BASEBOARD TOTAL HEATING ENERGY, Frequency=
   ************* Key=*, VarName=WATER HEATER NATURALGAS ENERGY, Frequency=
   ************* Key=*, VarName=COOLING COIL TOTAL HEATING ENERGY, Frequency=
   ************* There are 34 unused schedules in input.
   ************* There are 388 unused week schedules in input.
   ************* There are 396 unused day schedules in input.
   ************* Use Output:Diagnostics,DisplayUnusedSchedules; to see them.
   *************
   ************* ===== Recurring Error Summary =====
   ************* The following recurring error messages occurred.
   *************
   *************  ** Warning ** "TOTAL HOT WATER LOAD" - Target water temperature should be less than or equal to the hot water temperature error continues...
   *************  **   ~~~   **   This error occurred 148247 total times;
   *************  **   ~~~   **   during Warmup 0 times;
   *************  **   ~~~   **   during Sizing 0 times.
   *************  **   ~~~   **   Max=8.699366  Min=1.631617E-004
   *************
   *************
   ************* ===== Final Error Summary =====
   ************* The following error categories occurred.  Consider correcting or noting.
   ************* Nominally Unused Constructions
   ************* ..The nominally unused constructions warning is provided to alert you to potential conditions that can cause
   ************* ..extra time during simulation. Each construction is calculated by the algorithm indicated in the HeatBalanceAlgorithm
   ************* ..object. You may remove the constructions indicated (when you use the DisplayExtraWarnings option).
   *************
   ************* EnergyPlus Warmup Error Summary. During Warmup: 1 Warning; 0 Severe Errors.
   ************* EnergyPlus Sizing Error Summary. During Sizing: 4 Warning; 0 Severe Errors.
   ************* EnergyPlus Completed Successfully-- 148275 Warning; 0 Severe Errors; Elapsed Time=00hr 01min 41.10sec
