Program Version,EnergyPlus, Version 22.2.0-c249759bad, YMD=2023.09.01 19:49,
   ************* Beginning Zone Sizing Calculations
   ** Warning ** ProcessScheduleInput: Schedule:Constant="ALWAYS ON DISCRETE", Schedule Type Limits Name="ONOFF" not found -- will not be validated
   ** Warning ** Foundation:Kiva="KIVA FOUNDATION", no Interior Horizontal Insulation Material Name defined
   **   ~~~   ** Interior Horizontal Insulation Depth will not be used.
   ** Warning ** CheckUsedConstructions: There are 15 nominally unused constructions in input.
   **   ~~~   ** Each Unused construction is shown.
   ************* Construction=INTERIOR FLOOR
   ************* Construction=INTERIOR WINDOW
   ************* Construction=EXTERIOR DOOR
   ************* Construction=INTERIOR DOOR
   ************* Construction=GABLE CONSTRUCTION
   ************* Construction=CRAWL_FLOOR
   ************* Construction=INSULATED PIPE
   ************* Construction=PLAIN PIPE
   ************* Construction=TDD PIPE
   ************* Construction=TDD DOME
   ************* Construction=TDD DIFFUSER
   ************* Construction=CRAWL WALL
   ************* Construction=CEILING-FLOOR-LAYER
   ************* Construction=SLAB CONSTRUCTION W FULL R10 INSULATION
   ************* Construction=SLAB CONSTRUCTION W FULL R5 INSULATION
   ** Warning ** GetDXCoils: Coil:Heating:DX:SingleSpeed="DX_HEATING_COIL" curve values
   **   ~~~   ** ... Defrost Energy Input Ratio Function of Temperature Curve Name = DEFROSTEIR output is not equal to 1.0 (+ or - 10%) at rated conditions.
   **   ~~~   ** ... Curve output at rated conditions = 0.152
   ************* Beginning System Sizing Calculations
   ************* Beginning Plant Sizing Calculations
   ** Warning ** Coil:WaterHeating:AirToWaterHeatPump:Wrapped "HEAT PUMP WATER HEATER EVAPORATOR": Rated air volume flow rate per watt of rated total water heating capacity is out of range
   **   ~~~   ** Min Rated Vol Flow Per Watt=[4.027E-005], Rated Vol Flow Per Watt=[1.510E-004], Max Rated Vol Flow Per Watt=[8.056E-005]. See Input-Output Reference Manual for valid range.
   ************* SizeFan: : Potential issue with equipment sizing for Fan:OnOff HEAT PUMP WATER HEATER FAN
   **   ~~~   ** User-Specified Maximum Flow Rate [m3/s] = 0.22653
   **   ~~~   ** differs from Design Size Maximum Flow Rate [m3/s] = 7.55250E-002
   **   ~~~   ** This may, or may not, indicate mismatched component sizes.
   **   ~~~   ** Verify that the value entered is intended and is consistent with other components.
   ** Warning ** Water heater = WATER HEATER TANK:  Recovery Efficiency and Energy Factor could not be calculated during the test for standard ratings
   **   ~~~   ** Setpoint was never recovered and/or heater never turned on
   ** Warning ** Check input. Pump nominal power or motor efficiency is set to 0, for pump=MAINS PRESSURE
   ** Warning ** Output:Meter: invalid Key Name="ELECTRIC_RANGE:INTERIOREQUIPMENT:ELECTRICITY" - not found.
   ** Warning ** Output:Meter: invalid Key Name="ELECTRIC_DRYER:INTERIOREQUIPMENT:ELECTRICITY" - not found.
   ** Warning ** Output:Meter: invalid Key Name="HEATRECOVERY:ELECTRICITY" - not found.
   ** Warning ** Output:Meter: invalid Key Name="HEATING:NATURALGAS" - not found.
   ** Warning ** Output:Meter: invalid Key Name="WATERSYSTEMS:NATURALGAS" - not found.
   ** Warning ** Output:Meter: invalid Key Name="PROPANE:FACILITY" - not found.
   ** Warning ** Output:Meter: invalid Key Name="HEATING:PROPANE" - not found.
   ************* Testing Individual Branch Integrity
   ************* All Branches passed integrity testing
   ************* Testing Individual Supply Air Path Integrity
   ************* All Supply Air Paths passed integrity testing
   ************* Testing Individual Return Air Path Integrity
   ************* All Return Air Paths passed integrity testing
   ************* No node connection errors were found.
   ************* Beginning Simulation
   ** Warning ** AirflowNetwork::Solver::validate_distribution: Heat pump water heater is simulated along with an AirflowNetwork but is not included in the AirflowNetwork.
   ** Warning ** CalcEquipmentFlowRates: "TOTAL HOT WATER LOAD" - Target water temperature is greater than the hot water temperature by (3.48 C)
   **   ~~~   **  Environment=EXTREME_WINTER, at Simulation time=01/08 06:00 - 06:15
   **   ~~~   ** ...target water temperature     = 53.33 C
   **   ~~~   ** ...hot water temperature        = 49.85 C
   **   ~~~   ** ...Target water temperature should be less than or equal to the hot water temperature. Verify temperature setpoints and schedules.
   ** Warning ** SimHVAC: Maximum iterations (20) exceeded for all HVAC loops, at EXTREME_WINTER, 01/09 14:15 - 14:30
   **   ~~~   ** The solution for one or more of the Air Loop HVAC systems did not appear to converge
   **   ~~~   ** Air System Named = CENTRAL SYSTEM did not converge for mass flow rate
   **   ~~~   ** Check values should be zero. Most Recent values listed first.
   **   ~~~   ** Demand-to-Supply interface mass flow rate check value iteration history trace: 8.862554E-002,8.862554E-002,8.862554E-002,8.862554E-002,8.862554E-002,8.862554E-002,8.862554E-002,8.862554E-002,8.862554E-002,8.862554E-002,
   **   ~~~   ** Supply-to-demand interface deck 1 mass flow rate check value iteration history trace: 8.862554E-002,8.862554E-002,8.862554E-002,8.862554E-002,8.862554E-002,8.862554E-002,8.862554E-002,8.862554E-002,8.862554E-002,8.862554E-002,
   **   ~~~   ** Air System Named = CENTRAL SYSTEM did not converge for energy
   **   ~~~   ** Check values should be zero. Most Recent values listed first.
   **   ~~~   ** Demand-to-Supply interface energy check value iteration history trace: 1751.288427,1751.288427,1751.288427,1751.288427,1751.288426,1751.288426,1751.288426,1751.288426,1751.288426,1751.288426,
   **   ~~~   ** Supply-to-demand interface deck 1 energy check value iteration history trace: 2623.706914,2623.706914,2623.706914,2623.706914,2623.706914,2623.706914,2623.706914,2623.706914,2623.706913,2623.706913,
   ** Warning ** SimHVAC: Maximum iterations (20) exceeded for all HVAC loops, at ANNUAL, 01/15 17:25 - 17:30
   **   ~~~   ** The solution for one or more of the Air Loop HVAC systems did not appear to converge
   **   ~~~   ** Air System Named = CENTRAL SYSTEM did not converge for mass flow rate
   **   ~~~   ** Check values should be zero. Most Recent values listed first.
   **   ~~~   ** Demand-to-Supply interface mass flow rate check value iteration history trace: 7.050604E-002,7.050604E-002,7.050604E-002,7.050604E-002,7.050604E-002,7.050604E-002,7.050604E-002,7.050604E-002,7.050604E-002,7.050604E-002,
   **   ~~~   ** Supply-to-demand interface deck 1 mass flow rate check value iteration history trace: 7.050604E-002,7.050604E-002,7.050604E-002,7.050604E-002,7.050604E-002,7.050604E-002,7.050604E-002,7.050604E-002,7.050604E-002,7.050604E-002,
   **   ~~~   ** Air System Named = CENTRAL SYSTEM did not converge for energy
   **   ~~~   ** Check values should be zero. Most Recent values listed first.
   **   ~~~   ** Demand-to-Supply interface energy check value iteration history trace: 1394.173226,1394.173226,1394.173226,1394.173226,1394.173226,1394.173226,1394.173226,1394.173226,1394.173226,1394.173226,
   **   ~~~   ** Supply-to-demand interface deck 1 energy check value iteration history trace: 2386.695117,2386.695117,2386.695117,2386.695117,2386.695116,2386.695116,2386.695116,2386.695116,2386.695116,2386.695116,
   ** Warning ** SimHVAC: Maximum iterations (20) exceeded for all HVAC loops, at ANNUAL, 01/22 17:30 - 17:45
   **   ~~~   ** The solution for one or more of the Air Loop HVAC systems did not appear to converge
   **   ~~~   ** Air System Named = CENTRAL SYSTEM did not converge for mass flow rate
   **   ~~~   ** Check values should be zero. Most Recent values listed first.
   **   ~~~   ** Demand-to-Supply interface mass flow rate check value iteration history trace: 8.322993E-002,8.322993E-002,8.322993E-002,8.322993E-002,8.322993E-002,8.322993E-002,8.322993E-002,8.322993E-002,8.322993E-002,8.322993E-002,
   **   ~~~   ** Supply-to-demand interface deck 1 mass flow rate check value iteration history trace: 8.322993E-002,8.322993E-002,8.322993E-002,8.322993E-002,8.322993E-002,8.322993E-002,8.322993E-002,8.322993E-002,8.322993E-002,8.322993E-002,
   **   ~~~   ** Air System Named = CENTRAL SYSTEM did not converge for energy
   **   ~~~   ** Check values should be zero. Most Recent values listed first.
   **   ~~~   ** Demand-to-Supply interface energy check value iteration history trace: 1631.591120,1631.591120,1631.591120,1631.591120,1631.591120,1631.591120,1631.591120,1631.591120,1631.591120,1631.591120,
   **   ~~~   ** Supply-to-demand interface deck 1 energy check value iteration history trace: 2569.003497,2569.003496,2569.003496,2569.003496,2569.003496,2569.003496,2569.003496,2569.003495,2569.003495,2569.003495,
   ** Warning ** SimHVAC: Maximum iterations (20) exceeded for all HVAC loops, at ANNUAL, 02/04 16:45 - 17:00
   **   ~~~   ** The solution for one or more of the Air Loop HVAC systems did not appear to converge
   **   ~~~   ** Air System Named = CENTRAL SYSTEM did not converge for mass flow rate
   **   ~~~   ** Check values should be zero. Most Recent values listed first.
   **   ~~~   ** Demand-to-Supply interface mass flow rate check value iteration history trace: 8.212340E-002,8.212340E-002,8.212340E-002,8.212340E-002,8.212340E-002,8.212340E-002,8.212340E-002,8.212340E-002,8.212340E-002,8.212340E-002,
   **   ~~~   ** Supply-to-demand interface deck 1 mass flow rate check value iteration history trace: 8.212340E-002,8.212340E-002,8.212340E-002,8.212340E-002,8.212340E-002,8.212340E-002,8.212340E-002,8.212340E-002,8.212340E-002,8.212340E-002,
   **   ~~~   ** Air System Named = CENTRAL SYSTEM did not converge for energy
   **   ~~~   ** Check values should be zero. Most Recent values listed first.
   **   ~~~   ** Demand-to-Supply interface energy check value iteration history trace: 1618.296984,1618.296984,1618.296984,1618.296984,1618.296983,1618.296983,1618.296983,1618.296983,1618.296983,1618.296983,
   **   ~~~   ** Supply-to-demand interface deck 1 energy check value iteration history trace: 2426.853273,2426.853273,2426.853272,2426.853272,2426.853272,2426.853272,2426.853272,2426.853272,2426.853271,2426.853271,
   ** Warning ** SimHVAC: Maximum iterations (20) exceeded for all HVAC loops, at ANNUAL, 02/08 08:15 - 08:30
   **   ~~~   ** The solution for one or more of the Air Loop HVAC systems did not appear to converge
   **   ~~~   ** Air System Named = CENTRAL SYSTEM did not converge for mass flow rate
   **   ~~~   ** Check values should be zero. Most Recent values listed first.
   **   ~~~   ** Demand-to-Supply interface mass flow rate check value iteration history trace: 6.286798E-002,6.286798E-002,6.286798E-002,6.286798E-002,6.286798E-002,6.286798E-002,6.286798E-002,6.286798E-002,6.286798E-002,6.286798E-002,
   **   ~~~   ** Supply-to-demand interface deck 1 mass flow rate check value iteration history trace: 6.286798E-002,6.286798E-002,6.286798E-002,6.286798E-002,6.286798E-002,6.286798E-002,6.286798E-002,6.286798E-002,6.286798E-002,6.286798E-002,
   **   ~~~   ** Air System Named = CENTRAL SYSTEM did not converge for energy
   **   ~~~   ** Check values should be zero. Most Recent values listed first.
   **   ~~~   ** Demand-to-Supply interface energy check value iteration history trace: 1245.770599,1245.770599,1245.770599,1245.770599,1245.770599,1245.770599,1245.770599,1245.770598,1245.770598,1245.770598,
   **   ~~~   ** Supply-to-demand interface deck 1 energy check value iteration history trace: 2252.077814,2252.077814,2252.077814,2252.077814,2252.077814,2252.077814,2252.077814,2252.077814,2252.077814,2252.077814,
   ** Warning ** SimHVAC: Maximum iterations (20) exceeded for all HVAC loops, at ANNUAL, 02/12 12:15 - 12:30
   **   ~~~   ** The solution for one or more of the Air Loop HVAC systems did not appear to converge
   **   ~~~   ** Air System Named = CENTRAL SYSTEM did not converge for mass flow rate
   **   ~~~   ** Check values should be zero. Most Recent values listed first.
   **   ~~~   ** Demand-to-Supply interface mass flow rate check value iteration history trace: 6.344198E-002,6.344198E-002,6.344198E-002,6.344198E-002,6.344198E-002,6.344198E-002,6.344198E-002,6.344198E-002,6.344198E-002,6.344198E-002,
   **   ~~~   ** Supply-to-demand interface deck 1 mass flow rate check value iteration history trace: 6.344198E-002,6.344198E-002,6.344198E-002,6.344198E-002,6.344198E-002,6.344198E-002,6.344198E-002,6.344198E-002,6.344198E-002,6.344198E-002,
   **   ~~~   ** Air System Named = CENTRAL SYSTEM did not converge for energy
   **   ~~~   ** Check values should be zero. Most Recent values listed first.
   **   ~~~   ** Demand-to-Supply interface energy check value iteration history trace: 1255.273028,1255.273028,1255.273028,1255.273028,1255.273027,1255.273027,1255.273027,1255.273027,1255.273026,1255.273026,
   **   ~~~   ** Supply-to-demand interface deck 1 energy check value iteration history trace: 2216.894739,2216.894739,2216.894739,2216.894738,2216.894738,2216.894737,2216.894737,2216.894737,2216.894736,2216.894736,
   ** Warning ** SimHVAC: Maximum iterations (20) exceeded for all HVAC loops, at ANNUAL, 02/13 17:30 - 17:45
   **   ~~~   ** The solution for one or more of the Air Loop HVAC systems did not appear to converge
   **   ~~~   ** Air System Named = CENTRAL SYSTEM did not converge for mass flow rate
   **   ~~~   ** Check values should be zero. Most Recent values listed first.
   **   ~~~   ** Demand-to-Supply interface mass flow rate check value iteration history trace: 0.100504,0.100504,0.100504,0.100504,0.100504,0.100504,0.100504,0.100504,0.100504,0.100504,
   **   ~~~   ** Supply-to-demand interface deck 1 mass flow rate check value iteration history trace: 0.100504,0.100504,0.100504,0.100504,0.100504,0.100504,0.100504,0.100504,0.100504,0.100504,
   **   ~~~   ** Air System Named = CENTRAL SYSTEM did not converge for energy
   **   ~~~   ** Check values should be zero. Most Recent values listed first.
   **   ~~~   ** Demand-to-Supply interface energy check value iteration history trace: 1972.196070,1972.196070,1972.196070,1972.196070,1972.196070,1972.196069,1972.196069,1972.196069,1972.196069,1972.196069,
   **   ~~~   ** Supply-to-demand interface deck 1 energy check value iteration history trace: 3114.345103,3114.345103,3114.345103,3114.345103,3114.345102,3114.345102,3114.345102,3114.345102,3114.345102,3114.345101,
   ** Warning ** SimHVAC: Maximum iterations (20) exceeded for all HVAC loops, at ANNUAL, 03/04 10:25 - 10:30
   **   ~~~   ** The solution for one or more of the Air Loop HVAC systems did not appear to converge
   **   ~~~   ** Air System Named = CENTRAL SYSTEM did not converge for mass flow rate
   **   ~~~   ** Check values should be zero. Most Recent values listed first.
   **   ~~~   ** Demand-to-Supply interface mass flow rate check value iteration history trace: 6.869129E-002,6.869129E-002,6.869129E-002,6.869129E-002,6.869129E-002,6.869129E-002,6.869129E-002,6.869129E-002,6.869129E-002,6.869129E-002,
   **   ~~~   ** Supply-to-demand interface deck 1 mass flow rate check value iteration history trace: 6.869129E-002,6.869129E-002,6.869129E-002,6.869129E-002,6.869129E-002,6.869129E-002,6.869129E-002,6.869129E-002,6.869129E-002,6.869129E-002,
   **   ~~~   ** Air System Named = CENTRAL SYSTEM did not converge for energy
   **   ~~~   ** Check values should be zero. Most Recent values listed first.
   **   ~~~   ** Demand-to-Supply interface energy check value iteration history trace: 1361.223393,1361.223393,1361.223393,1361.223393,1361.223392,1361.223392,1361.223392,1361.223392,1361.223392,1361.223392,
   **   ~~~   ** Supply-to-demand interface deck 1 energy check value iteration history trace: 2355.945413,2355.945413,2355.945413,2355.945413,2355.945412,2355.945412,2355.945412,2355.945412,2355.945412,2355.945412,
   ** Warning ** SimHVAC: Maximum iterations (20) exceeded for all HVAC loops, at ANNUAL, 03/08 22:10 - 22:15
   **   ~~~   ** The solution for one or more of the Air Loop HVAC systems did not appear to converge
   **   ~~~   ** Air System Named = CENTRAL SYSTEM did not converge for mass flow rate
   **   ~~~   ** Check values should be zero. Most Recent values listed first.
   **   ~~~   ** Demand-to-Supply interface mass flow rate check value iteration history trace: 6.037598E-002,6.037598E-002,6.037598E-002,6.037598E-002,6.037598E-002,6.037598E-002,6.037598E-002,6.037598E-002,6.037598E-002,6.037598E-002,
   **   ~~~   ** Supply-to-demand interface deck 1 mass flow rate check value iteration history trace: 6.037598E-002,6.037598E-002,6.037598E-002,6.037598E-002,6.037598E-002,6.037598E-002,6.037598E-002,6.037598E-002,6.037598E-002,6.037598E-002,
   **   ~~~   ** Air System Named = CENTRAL SYSTEM did not converge for energy
   **   ~~~   ** Check values should be zero. Most Recent values listed first.
   **   ~~~   ** Demand-to-Supply interface energy check value iteration history trace: 1143.966265,1143.966265,1143.966265,1143.966265,1143.966265,1143.966265,1143.966265,1143.966264,1143.966264,1143.966264,
   **   ~~~   ** Supply-to-demand interface deck 1 energy check value iteration history trace: 1977.027786,1977.027786,1977.027786,1977.027786,1977.027786,1977.027785,1977.027785,1977.027785,1977.027785,1977.027785,
   ** Warning ** SimHVAC: Maximum iterations (20) exceeded for all HVAC loops, at ANNUAL, 03/11 10:08 - 10:15
   **   ~~~   ** The solution for one or more of the Air Loop HVAC systems did not appear to converge
   **   ~~~   ** Air System Named = CENTRAL SYSTEM did not converge for mass flow rate
   **   ~~~   ** Check values should be zero. Most Recent values listed first.
   **   ~~~   ** Demand-to-Supply interface mass flow rate check value iteration history trace: 8.858109E-002,8.858109E-002,8.858109E-002,8.858109E-002,8.858109E-002,8.858109E-002,8.858109E-002,8.858109E-002,8.858109E-002,8.858109E-002,
   **   ~~~   ** Supply-to-demand interface deck 1 mass flow rate check value iteration history trace: 8.858109E-002,8.858109E-002,8.858109E-002,8.858109E-002,8.858109E-002,8.858109E-002,8.858109E-002,8.858109E-002,8.858109E-002,8.858109E-002,
   **   ~~~   ** Air System Named = CENTRAL SYSTEM did not converge for energy
   **   ~~~   ** Check values should be zero. Most Recent values listed first.
   **   ~~~   ** Demand-to-Supply interface energy check value iteration history trace: 1755.370331,1755.370330,1755.370330,1755.370330,1755.370330,1755.370330,1755.370330,1755.370330,1755.370330,1755.370330,
   **   ~~~   ** Supply-to-demand interface deck 1 energy check value iteration history trace: 2714.746323,2714.746322,2714.746322,2714.746322,2714.746322,2714.746322,2714.746321,2714.746321,2714.746321,2714.746321,
   ** Warning ** SimHVAC: Maximum iterations (20) exceeded for all HVAC loops, at ANNUAL, 03/26 09:15 - 09:30
   **   ~~~   ** The solution for one or more of the Air Loop HVAC systems did not appear to converge
   **   ~~~   ** Air System Named = CENTRAL SYSTEM did not converge for mass flow rate
   **   ~~~   ** Check values should be zero. Most Recent values listed first.
   **   ~~~   ** Demand-to-Supply interface mass flow rate check value iteration history trace: 0.106406,0.106406,0.106406,0.106406,0.106406,0.106406,0.106406,0.106406,0.106406,0.106406,
   **   ~~~   ** Supply-to-demand interface deck 1 mass flow rate check value iteration history trace: 0.106406,0.106406,0.106406,0.106406,0.106406,0.106406,0.106406,0.106406,0.106406,0.106406,
   **   ~~~   ** Air System Named = CENTRAL SYSTEM did not converge for energy
   **   ~~~   ** Check values should be zero. Most Recent values listed first.
   **   ~~~   ** Demand-to-Supply interface energy check value iteration history trace: 2108.635815,2108.635814,2108.635814,2108.635814,2108.635814,2108.635814,2108.635814,2108.635814,2108.635813,2108.635813,
   **   ~~~   ** Supply-to-demand interface deck 1 energy check value iteration history trace: 3273.627076,3273.627076,3273.627076,3273.627076,3273.627075,3273.627075,3273.627075,3273.627075,3273.627075,3273.627074,
   ** Warning ** SimHVAC: Maximum iterations (20) exceeded for all HVAC loops, at ANNUAL, 03/28 04:15 - 04:30
   **   ~~~   ** The solution for one or more of the Air Loop HVAC systems did not appear to converge
   **   ~~~   ** Air System Named = CENTRAL SYSTEM did not converge for mass flow rate
   **   ~~~   ** Check values should be zero. Most Recent values listed first.
   **   ~~~   ** Demand-to-Supply interface mass flow rate check value iteration history trace: 6.820692E-002,6.820692E-002,6.820692E-002,6.820692E-002,6.820692E-002,6.820692E-002,6.820692E-002,6.820692E-002,6.820692E-002,6.820692E-002,
   **   ~~~   ** Supply-to-demand interface deck 1 mass flow rate check value iteration history trace: 6.820692E-002,6.820692E-002,6.820692E-002,6.820692E-002,6.820692E-002,6.820692E-002,6.820692E-002,6.820692E-002,6.820692E-002,6.820692E-002,
   **   ~~~   ** Air System Named = CENTRAL SYSTEM did not converge for energy
   **   ~~~   ** Check values should be zero. Most Recent values listed first.
   **   ~~~   ** Demand-to-Supply interface energy check value iteration history trace: 1272.349759,1272.349759,1272.349759,1272.349759,1272.349759,1272.349759,1272.349759,1272.349759,1272.349759,1272.349758,
   **   ~~~   ** Supply-to-demand interface deck 1 energy check value iteration history trace: 1996.664685,1996.664685,1996.664685,1996.664685,1996.664685,1996.664684,1996.664684,1996.664684,1996.664684,1996.664684,
   ** Warning ** SimHVAC: Maximum iterations (20) exceeded for all HVAC loops, at ANNUAL, 04/04 09:04 - 09:08
   **   ~~~   ** The solution for one or more of the Air Loop HVAC systems did not appear to converge
   **   ~~~   ** Air System Named = CENTRAL SYSTEM did not converge for mass flow rate
   **   ~~~   ** Check values should be zero. Most Recent values listed first.
   **   ~~~   ** Demand-to-Supply interface mass flow rate check value iteration history trace: 6.162163E-002,6.162163E-002,6.162163E-002,6.162163E-002,6.162163E-002,6.162163E-002,6.162163E-002,6.162163E-002,6.162163E-002,6.162163E-002,
   **   ~~~   ** Supply-to-demand interface deck 1 mass flow rate check value iteration history trace: 6.162163E-002,6.162163E-002,6.162163E-002,6.162163E-002,6.162163E-002,6.162163E-002,6.162163E-002,6.162163E-002,6.162163E-002,6.162163E-002,
   **   ~~~   ** Air System Named = CENTRAL SYSTEM did not converge for energy
   **   ~~~   ** Check values should be zero. Most Recent values listed first.
   **   ~~~   ** Demand-to-Supply interface energy check value iteration history trace: 1218.320488,1218.320488,1218.320488,1218.320488,1218.320488,1218.320488,1218.320488,1218.320488,1218.320487,1218.320487,
   **   ~~~   ** Supply-to-demand interface deck 1 energy check value iteration history trace: 2046.457730,2046.457730,2046.457729,2046.457729,2046.457729,2046.457729,2046.457729,2046.457729,2046.457729,2046.457729,
   ** Warning ** SimHVAC: Maximum iterations (20) exceeded for all HVAC loops, at ANNUAL, 04/10 10:00 - 10:15
   **   ~~~   ** The solution for one or more of the Air Loop HVAC systems did not appear to converge
   **   ~~~   ** Air System Named = CENTRAL SYSTEM did not converge for mass flow rate
   **   ~~~   ** Check values should be zero. Most Recent values listed first.
   **   ~~~   ** Demand-to-Supply interface mass flow rate check value iteration history trace: 6.422955E-002,6.422955E-002,6.422955E-002,6.422955E-002,6.422955E-002,6.422955E-002,6.422955E-002,6.422955E-002,6.422955E-002,6.422955E-002,
   **   ~~~   ** Supply-to-demand interface deck 1 mass flow rate check value iteration history trace: 6.422955E-002,6.422955E-002,6.422955E-002,6.422955E-002,6.422955E-002,6.422955E-002,6.422955E-002,6.422955E-002,6.422955E-002,6.422955E-002,
   **   ~~~   ** Air System Named = CENTRAL SYSTEM did not converge for energy
   **   ~~~   ** Check values should be zero. Most Recent values listed first.
   **   ~~~   ** Demand-to-Supply interface energy check value iteration history trace: 1272.775316,1272.775316,1272.775316,1272.775316,1272.775316,1272.775316,1272.775316,1272.775316,1272.775316,1272.775316,
   **   ~~~   ** Supply-to-demand interface deck 1 energy check value iteration history trace: 2175.920248,2175.920248,2175.920248,2175.920248,2175.920248,2175.920247,2175.920247,2175.920247,2175.920247,2175.920247,
   ************* Simulation Error Summary *************
   ** Warning ** The following Report Variables were requested but not generated -- check.rdd file
   **   ~~~   ** Either the IDF did not contain these elements, the variable name is misspelled,
   **   ~~~   ** or the requested variable is an advanced output which requires Output : Diagnostics, DisplayAdvancedReportVariables;
   ************* Key=*, VarName=BASEBOARD TOTAL HEATING ENERGY, Frequency=
   ************* Key=*, VarName=WATER HEATER NATURALGAS ENERGY, Frequency=
   ************* Key=*, VarName=COOLING COIL TOTAL HEATING ENERGY, Frequency=
   ************* There are 34 unused schedules in input.
   ************* There are 388 unused week schedules in input.
   ************* There are 396 unused day schedules in input.
   ************* Use Output:Diagnostics,DisplayUnusedSchedules; to see them.
   *************
   ************* ===== Recurring Error Summary =====
   ************* The following recurring error messages occurred.
   *************
   *************  ** Warning ** "TOTAL HOT WATER LOAD" - Target water temperature should be less than or equal to the hot water temperature error continues...
   *************  **   ~~~   **   This error occurred 129379 total times;
   *************  **   ~~~   **   during Warmup 0 times;
   *************  **   ~~~   **   during Sizing 0 times.
   *************  **   ~~~   **   Max=12.240007  Min=6.726002E-004
   *************
   *************  ** Warning ** SimHVAC: Exceeding Maximum iterations for all HVAC loops, during ANNUAL continues
   *************  **   ~~~   **   This error occurred 16 total times;
   *************  **   ~~~   **   during Warmup 0 times;
   *************  **   ~~~   **   during Sizing 0 times.
   *************
   *************
   ************* ===== Final Error Summary =====
   ************* The following error categories occurred.  Consider correcting or noting.
   ************* Nominally Unused Constructions
   ************* ..The nominally unused constructions warning is provided to alert you to potential conditions that can cause
   ************* ..extra time during simulation. Each construction is calculated by the algorithm indicated in the HeatBalanceAlgorithm
   ************* ..object. You may remove the constructions indicated (when you use the DisplayExtraWarnings option).
   *************
   ************* EnergyPlus Warmup Error Summary. During Warmup: 1 Warning; 0 Severe Errors.
   ************* EnergyPlus Sizing Error Summary. During Sizing: 4 Warning; 0 Severe Errors.
   ************* EnergyPlus Completed Successfully-- 129426 Warning; 0 Severe Errors; Elapsed Time=00hr 01min 34.07sec
