Program Version,EnergyPlus, Version 22.2.0-c249759bad, YMD=2023.09.01 18:53,
   ************* Beginning Zone Sizing Calculations
   ** Warning ** ProcessScheduleInput: Schedule:Constant="ALWAYS ON DISCRETE", Schedule Type Limits Name="ONOFF" not found -- will not be validated
   ** Warning ** Foundation:Kiva="KIVA FOUNDATION", no Interior Horizontal Insulation Material Name defined
   **   ~~~   ** Interior Horizontal Insulation Depth will not be used.
   ** Warning ** CheckUsedConstructions: There are 15 nominally unused constructions in input.
   **   ~~~   ** Each Unused construction is shown.
   ************* Construction=INTERIOR FLOOR
   ************* Construction=INTERIOR WINDOW
   ************* Construction=EXTERIOR DOOR
   ************* Construction=INTERIOR DOOR
   ************* Construction=GABLE CONSTRUCTION
   ************* Construction=CRAWL_FLOOR
   ************* Construction=INSULATED PIPE
   ************* Construction=PLAIN PIPE
   ************* Construction=TDD PIPE
   ************* Construction=TDD DOME
   ************* Construction=TDD DIFFUSER
   ************* Construction=CRAWL WALL
   ************* Construction=CEILING-FLOOR-LAYER
   ************* Construction=SLAB CONSTRUCTION W FULL R10 INSULATION
   ************* Construction=SLAB CONSTRUCTION W FULL R5 INSULATION
   ** Warning ** GetDXCoils: Coil:Heating:DX:SingleSpeed="DX_HEATING_COIL" curve values
   **   ~~~   ** ... Defrost Energy Input Ratio Function of Temperature Curve Name = DEFROSTEIR output is not equal to 1.0 (+ or - 10%) at rated conditions.
   **   ~~~   ** ... Curve output at rated conditions = 0.152
   ************* Beginning System Sizing Calculations
   ************* Beginning Plant Sizing Calculations
   ** Warning ** Coil:WaterHeating:AirToWaterHeatPump:Wrapped "HEAT PUMP WATER HEATER EVAPORATOR": Rated air volume flow rate per watt of rated total water heating capacity is out of range
   **   ~~~   ** Min Rated Vol Flow Per Watt=[4.027E-005], Rated Vol Flow Per Watt=[1.510E-004], Max Rated Vol Flow Per Watt=[8.056E-005]. See Input-Output Reference Manual for valid range.
   ************* SizeFan: : Potential issue with equipment sizing for Fan:OnOff HEAT PUMP WATER HEATER FAN
   **   ~~~   ** User-Specified Maximum Flow Rate [m3/s] = 0.22653
   **   ~~~   ** differs from Design Size Maximum Flow Rate [m3/s] = 7.55250E-002
   **   ~~~   ** This may, or may not, indicate mismatched component sizes.
   **   ~~~   ** Verify that the value entered is intended and is consistent with other components.
   ** Warning ** Water heater = WATER HEATER TANK:  Recovery Efficiency and Energy Factor could not be calculated during the test for standard ratings
   **   ~~~   ** Setpoint was never recovered and/or heater never turned on
   ** Warning ** Check input. Pump nominal power or motor efficiency is set to 0, for pump=MAINS PRESSURE
   ** Warning ** AirflowNetwork::Solver::validate_distribution: Heat pump water heater is simulated along with an AirflowNetwork but is not included in the AirflowNetwork.
   ** Warning ** Output:Meter: invalid Key Name="ELECTRIC_RANGE:INTERIOREQUIPMENT:ELECTRICITY" - not found.
   ** Warning ** Output:Meter: invalid Key Name="ELECTRIC_DRYER:INTERIOREQUIPMENT:ELECTRICITY" - not found.
   ** Warning ** Output:Meter: invalid Key Name="HEATRECOVERY:ELECTRICITY" - not found.
   ** Warning ** Output:Meter: invalid Key Name="HEATING:NATURALGAS" - not found.
   ** Warning ** Output:Meter: invalid Key Name="WATERSYSTEMS:NATURALGAS" - not found.
   ** Warning ** Output:Meter: invalid Key Name="PROPANE:FACILITY" - not found.
   ** Warning ** Output:Meter: invalid Key Name="HEATING:PROPANE" - not found.
   ************* Testing Individual Branch Integrity
   ************* All Branches passed integrity testing
   ************* Testing Individual Supply Air Path Integrity
   ************* All Supply Air Paths passed integrity testing
   ************* Testing Individual Return Air Path Integrity
   ************* All Return Air Paths passed integrity testing
   ************* No node connection errors were found.
   ************* Beginning Simulation
   ** Warning ** CalcEquipmentFlowRates: "TOTAL HOT WATER LOAD" - Target water temperature is greater than the hot water temperature by (2.46 C)
   **   ~~~   **  Environment=EXTREME_WINTER, at Simulation time=01/20 03:45 - 04:00
   **   ~~~   ** ...target water temperature     = 53.33 C
   **   ~~~   ** ...hot water temperature        = 50.87 C
   **   ~~~   ** ...Target water temperature should be less than or equal to the hot water temperature. Verify temperature setpoints and schedules.
   ** Warning ** SimHVAC: Maximum iterations (20) exceeded for all HVAC loops, at EXTREME_SUMMER, 07/31 01:45 - 02:00
   **   ~~~   ** The solution for one or more of the Air Loop HVAC systems did not appear to converge
   **   ~~~   ** Air System Named = CENTRAL SYSTEM did not converge for mass flow rate
   **   ~~~   ** Check values should be zero. Most Recent values listed first.
   **   ~~~   ** Demand-to-Supply interface mass flow rate check value iteration history trace: 9.096504E-002,9.096504E-002,9.096504E-002,9.096504E-002,9.096504E-002,9.096504E-002,9.096504E-002,9.096504E-002,9.096504E-002,9.096504E-002,
   **   ~~~   ** Supply-to-demand interface deck 1 mass flow rate check value iteration history trace: 9.096504E-002,9.096504E-002,9.096504E-002,9.096504E-002,9.096504E-002,9.096504E-002,9.096504E-002,9.096504E-002,9.096504E-002,9.096504E-002,
   **   ~~~   ** Air System Named = CENTRAL SYSTEM did not converge for energy
   **   ~~~   ** Check values should be zero. Most Recent values listed first.
   **   ~~~   ** Demand-to-Supply interface energy check value iteration history trace: 2281.566484,2281.566485,2281.566485,2281.566486,2281.566487,2281.566487,2281.566488,2281.566488,2281.566489,2281.566490,
   **   ~~~   ** Supply-to-demand interface deck 1 energy check value iteration history trace: 1026.741295,1026.741295,1026.741295,1026.741296,1026.741296,1026.741296,1026.741296,1026.741297,1026.741297,1026.741297,
   ** Warning ** SimHVAC: Maximum iterations (20) exceeded for all HVAC loops, at ANNUAL, 01/07 10:15 - 10:30
   **   ~~~   ** The solution for one or more of the Air Loop HVAC systems did not appear to converge
   **   ~~~   ** Air System Named = CENTRAL SYSTEM did not converge for mass flow rate
   **   ~~~   ** Check values should be zero. Most Recent values listed first.
   **   ~~~   ** Demand-to-Supply interface mass flow rate check value iteration history trace: 4.233832E-002,4.233832E-002,4.233832E-002,4.233832E-002,4.233832E-002,4.233832E-002,4.233832E-002,4.233832E-002,4.233832E-002,4.233832E-002,
   **   ~~~   ** Supply-to-demand interface deck 1 mass flow rate check value iteration history trace: 4.233832E-002,4.233832E-002,4.233832E-002,4.233832E-002,4.233832E-002,4.233832E-002,4.233832E-002,4.233832E-002,4.233832E-002,4.233832E-002,
   **   ~~~   ** Air System Named = CENTRAL SYSTEM did not converge for energy
   **   ~~~   ** Check values should be zero. Most Recent values listed first.
   **   ~~~   ** Demand-to-Supply interface energy check value iteration history trace: 839.719410,839.719410,839.719410,839.719410,839.719410,839.719410,839.719410,839.719410,839.719410,839.719410,
   **   ~~~   ** Supply-to-demand interface deck 1 energy check value iteration history trace: 1641.689176,1641.689176,1641.689176,1641.689176,1641.689176,1641.689176,1641.689176,1641.689176,1641.689176,1641.689176,
   **   ~~~   ** Node named ZONE INLET NODE shows oscillating temperatures across iterations with a repeated value of 38.588574
   **   ~~~   ** Node named ZONE INLET NODE temperature [C] iteration history trace (most recent first): 38.588574,38.588574,38.588573,38.588573,38.588573,38.588573,38.588573,38.588572,38.588572,38.588572,
   ** Warning ** SimHVAC: Maximum iterations (20) exceeded for all HVAC loops, at ANNUAL, 01/08 14:53 - 15:00
   **   ~~~   ** The solution for one or more of the Air Loop HVAC systems did not appear to converge
   **   ~~~   ** Air System Named = CENTRAL SYSTEM did not converge for mass flow rate
   **   ~~~   ** Check values should be zero. Most Recent values listed first.
   **   ~~~   ** Demand-to-Supply interface mass flow rate check value iteration history trace: 5.043847E-002,5.043847E-002,5.043847E-002,5.043847E-002,5.043847E-002,5.043847E-002,5.043847E-002,5.043847E-002,5.043847E-002,5.043847E-002,
   **   ~~~   ** Supply-to-demand interface deck 1 mass flow rate check value iteration history trace: 5.043847E-002,5.043847E-002,5.043847E-002,5.043847E-002,5.043847E-002,5.043847E-002,5.043847E-002,5.043847E-002,5.043847E-002,5.043847E-002,
   **   ~~~   ** Air System Named = CENTRAL SYSTEM did not converge for energy
   **   ~~~   ** Check values should be zero. Most Recent values listed first.
   **   ~~~   ** Demand-to-Supply interface energy check value iteration history trace: 999.429004,999.429004,999.429004,999.429004,999.429004,999.429004,999.429004,999.429004,999.429004,999.429004,
   **   ~~~   ** Supply-to-demand interface deck 1 energy check value iteration history trace: 1896.304093,1896.304093,1896.304092,1896.304092,1896.304092,1896.304092,1896.304092,1896.304092,1896.304092,1896.304092,
   ** Warning ** SimHVAC: Maximum iterations (20) exceeded for all HVAC loops, at ANNUAL, 02/17 18:45 - 19:00
   **   ~~~   ** The solution for one or more of the Air Loop HVAC systems did not appear to converge
   **   ~~~   ** Air System Named = CENTRAL SYSTEM did not converge for mass flow rate
   **   ~~~   ** Check values should be zero. Most Recent values listed first.
   **   ~~~   ** Demand-to-Supply interface mass flow rate check value iteration history trace: 4.704315E-002,4.704315E-002,4.704315E-002,4.704315E-002,4.704315E-002,4.704315E-002,4.704315E-002,4.704315E-002,4.704315E-002,4.704315E-002,
   **   ~~~   ** Supply-to-demand interface deck 1 mass flow rate check value iteration history trace: 4.704315E-002,4.704315E-002,4.704315E-002,4.704315E-002,4.704315E-002,4.704315E-002,4.704315E-002,4.704315E-002,4.704315E-002,4.704315E-002,
   **   ~~~   ** Air System Named = CENTRAL SYSTEM did not converge for energy
   **   ~~~   ** Check values should be zero. Most Recent values listed first.
   **   ~~~   ** Demand-to-Supply interface energy check value iteration history trace: 932.536577,932.536577,932.536577,932.536577,932.536577,932.536577,932.536577,932.536577,932.536577,932.536577,
   **   ~~~   ** Supply-to-demand interface deck 1 energy check value iteration history trace: 1789.376581,1789.376581,1789.376581,1789.376581,1789.376581,1789.376581,1789.376581,1789.376581,1789.376581,1789.376581,
   **   ~~~   ** Node named ZONE INLET NODE shows oscillating temperatures across iterations with a repeated value of 37.853564
   **   ~~~   ** Node named ZONE INLET NODE temperature [C] iteration history trace (most recent first): 37.853564,37.853564,37.853564,37.853563,37.853563,37.853563,37.853563,37.853562,37.853562,37.853562,
   ** Warning ** SimHVAC: Maximum iterations (20) exceeded for all HVAC loops, at ANNUAL, 03/06 08:54 - 08:57
   **   ~~~   ** The solution for one or more of the Air Loop HVAC systems did not appear to converge
   **   ~~~   ** Air System Named = CENTRAL SYSTEM did not converge for mass flow rate
   **   ~~~   ** Check values should be zero. Most Recent values listed first.
   **   ~~~   ** Demand-to-Supply interface mass flow rate check value iteration history trace: 4.655085E-002,4.655085E-002,4.655085E-002,4.655085E-002,4.655085E-002,4.655085E-002,4.655085E-002,4.655085E-002,4.655085E-002,4.655085E-002,
   **   ~~~   ** Supply-to-demand interface deck 1 mass flow rate check value iteration history trace: 4.655085E-002,4.655085E-002,4.655085E-002,4.655085E-002,4.655085E-002,4.655085E-002,4.655085E-002,4.655085E-002,4.655085E-002,4.655085E-002,
   **   ~~~   ** Air System Named = CENTRAL SYSTEM did not converge for energy
   **   ~~~   ** Check values should be zero. Most Recent values listed first.
   **   ~~~   ** Demand-to-Supply interface energy check value iteration history trace: 917.445818,917.445818,917.445818,917.445818,917.445818,917.445818,917.445818,917.445818,917.445818,917.445818,
   **   ~~~   ** Supply-to-demand interface deck 1 energy check value iteration history trace: 1744.151802,1744.151802,1744.151802,1744.151802,1744.151802,1744.151802,1744.151802,1744.151802,1744.151802,1744.151802,
   ** Warning ** SimHVAC: Maximum iterations (20) exceeded for all HVAC loops, at ANNUAL, 03/25 09:40 - 09:45
   **   ~~~   ** The solution for one or more of the Air Loop HVAC systems did not appear to converge
   **   ~~~   ** Air System Named = CENTRAL SYSTEM did not converge for mass flow rate
   **   ~~~   ** Check values should be zero. Most Recent values listed first.
   **   ~~~   ** Demand-to-Supply interface mass flow rate check value iteration history trace: 6.507008E-002,6.507008E-002,6.507008E-002,6.507008E-002,6.507008E-002,6.507008E-002,6.507008E-002,6.507008E-002,6.507008E-002,6.507008E-002,
   **   ~~~   ** Supply-to-demand interface deck 1 mass flow rate check value iteration history trace: 6.507008E-002,6.507008E-002,6.507008E-002,6.507008E-002,6.507008E-002,6.507008E-002,6.507008E-002,6.507008E-002,6.507008E-002,6.507008E-002,
   **   ~~~   ** Air System Named = CENTRAL SYSTEM did not converge for energy
   **   ~~~   ** Check values should be zero. Most Recent values listed first.
   **   ~~~   ** Demand-to-Supply interface energy check value iteration history trace: 1279.072494,1279.072494,1279.072494,1279.072494,1279.072494,1279.072494,1279.072493,1279.072493,1279.072493,1279.072493,
   **   ~~~   ** Supply-to-demand interface deck 1 energy check value iteration history trace: 2308.724251,2308.724250,2308.724250,2308.724250,2308.724250,2308.724250,2308.724250,2308.724250,2308.724250,2308.724250,
   ** Warning ** SimHVAC: Maximum iterations (20) exceeded for all HVAC loops, at ANNUAL, 03/27 19:45 - 20:00
   **   ~~~   ** The solution for one or more of the Air Loop HVAC systems did not appear to converge
   **   ~~~   ** Air System Named = CENTRAL SYSTEM did not converge for mass flow rate
   **   ~~~   ** Check values should be zero. Most Recent values listed first.
   **   ~~~   ** Demand-to-Supply interface mass flow rate check value iteration history trace: 3.173685E-002,3.173685E-002,3.173685E-002,3.173685E-002,3.173685E-002,3.173685E-002,3.173685E-002,3.173685E-002,3.173685E-002,3.173685E-002,
   **   ~~~   ** Supply-to-demand interface deck 1 mass flow rate check value iteration history trace: 3.173685E-002,3.173685E-002,3.173685E-002,3.173685E-002,3.173685E-002,3.173685E-002,3.173685E-002,3.173685E-002,3.173685E-002,3.173685E-002,
   **   ~~~   ** Air System Named = CENTRAL SYSTEM did not converge for energy
   **   ~~~   ** Check values should be zero. Most Recent values listed first.
   **   ~~~   ** Demand-to-Supply interface energy check value iteration history trace: 628.773410,628.773410,628.773410,628.773410,628.773410,628.773410,628.773409,628.773409,628.773409,628.773409,
   **   ~~~   ** Supply-to-demand interface deck 1 energy check value iteration history trace: 983.282033,983.282033,983.282033,983.282033,983.282032,983.282032,983.282032,983.282032,983.282032,983.282032,
   ** Warning ** SimHVAC: Maximum iterations (20) exceeded for all HVAC loops, at ANNUAL, 04/08 10:00 - 10:03
   **   ~~~   ** The solution for one or more of the Air Loop HVAC systems did not appear to converge
   **   ~~~   ** Air System Named = CENTRAL SYSTEM did not converge for mass flow rate
   **   ~~~   ** Check values should be zero. Most Recent values listed first.
   **   ~~~   ** Demand-to-Supply interface mass flow rate check value iteration history trace: 5.836639E-002,5.836639E-002,5.836639E-002,5.836639E-002,5.836639E-002,5.836639E-002,5.836639E-002,5.836639E-002,5.836639E-002,5.836639E-002,
   **   ~~~   ** Supply-to-demand interface deck 1 mass flow rate check value iteration history trace: 5.836639E-002,5.836639E-002,5.836639E-002,5.836639E-002,5.836639E-002,5.836639E-002,5.836639E-002,5.836639E-002,5.836639E-002,5.836639E-002,
   **   ~~~   ** Air System Named = CENTRAL SYSTEM did not converge for energy
   **   ~~~   ** Check values should be zero. Most Recent values listed first.
   **   ~~~   ** Demand-to-Supply interface energy check value iteration history trace: 1156.615501,1156.615501,1156.615501,1156.615501,1156.615501,1156.615501,1156.615501,1156.615501,1156.615501,1156.615501,
   **   ~~~   ** Supply-to-demand interface deck 1 energy check value iteration history trace: 2137.995216,2137.995216,2137.995216,2137.995216,2137.995216,2137.995216,2137.995216,2137.995216,2137.995215,2137.995215,
   ** Warning ** SimHVAC: Maximum iterations (20) exceeded for all HVAC loops, at ANNUAL, 04/11 06:45 - 07:00
   **   ~~~   ** The solution for one or more of the Air Loop HVAC systems did not appear to converge
   **   ~~~   ** Air System Named = CENTRAL SYSTEM did not converge for mass flow rate
   **   ~~~   ** Check values should be zero. Most Recent values listed first.
   **   ~~~   ** Demand-to-Supply interface mass flow rate check value iteration history trace: 6.170040E-002,6.170040E-002,6.170040E-002,6.170040E-002,6.170040E-002,6.170040E-002,6.170040E-002,6.170040E-002,6.170040E-002,6.170040E-002,
   **   ~~~   ** Supply-to-demand interface deck 1 mass flow rate check value iteration history trace: 6.170040E-002,6.170040E-002,6.170040E-002,6.170040E-002,6.170040E-002,6.170040E-002,6.170040E-002,6.170040E-002,6.170040E-002,6.170040E-002,
   **   ~~~   ** Air System Named = CENTRAL SYSTEM did not converge for energy
   **   ~~~   ** Check values should be zero. Most Recent values listed first.
   **   ~~~   ** Demand-to-Supply interface energy check value iteration history trace: 1222.671601,1222.671601,1222.671601,1222.671601,1222.671601,1222.671601,1222.671601,1222.671601,1222.671601,1222.671601,
   **   ~~~   ** Supply-to-demand interface deck 1 energy check value iteration history trace: 2237.682825,2237.682825,2237.682825,2237.682825,2237.682825,2237.682825,2237.682825,2237.682824,2237.682824,2237.682824,
   ** Warning ** SimHVAC: Maximum iterations (20) exceeded for all HVAC loops, at ANNUAL, 04/25 07:15 - 07:22
   **   ~~~   ** The solution for one or more of the Air Loop HVAC systems did not appear to converge
   **   ~~~   ** Air System Named = CENTRAL SYSTEM did not converge for mass flow rate
   **   ~~~   ** Check values should be zero. Most Recent values listed first.
   **   ~~~   ** Demand-to-Supply interface mass flow rate check value iteration history trace: 5.472145E-002,5.472145E-002,5.472145E-002,5.472145E-002,5.472145E-002,5.472145E-002,5.472145E-002,5.472145E-002,5.472145E-002,5.472145E-002,
   **   ~~~   ** Supply-to-demand interface deck 1 mass flow rate check value iteration history trace: 5.472145E-002,5.472145E-002,5.472145E-002,5.472145E-002,5.472145E-002,5.472145E-002,5.472145E-002,5.472145E-002,5.472145E-002,5.472145E-002,
   **   ~~~   ** Air System Named = CENTRAL SYSTEM did not converge for energy
   **   ~~~   ** Check values should be zero. Most Recent values listed first.
   **   ~~~   ** Demand-to-Supply interface energy check value iteration history trace: 1084.677074,1084.677074,1084.677074,1084.677074,1084.677074,1084.677074,1084.677074,1084.677074,1084.677074,1084.677074,
   **   ~~~   ** Supply-to-demand interface deck 1 energy check value iteration history trace: 1989.139093,1989.139093,1989.139093,1989.139093,1989.139093,1989.139093,1989.139093,1989.139093,1989.139092,1989.139092,
   ** Warning ** SimHVAC: Maximum iterations (20) exceeded for all HVAC loops, at ANNUAL, 05/18 07:15 - 07:22
   **   ~~~   ** The solution for one or more of the Air Loop HVAC systems did not appear to converge
   **   ~~~   ** Air System Named = CENTRAL SYSTEM did not converge for mass flow rate
   **   ~~~   ** Check values should be zero. Most Recent values listed first.
   **   ~~~   ** Demand-to-Supply interface mass flow rate check value iteration history trace: 4.874917E-002,4.874917E-002,4.874917E-002,4.874917E-002,4.874917E-002,4.874917E-002,4.874917E-002,4.874917E-002,4.874917E-002,4.874917E-002,
   **   ~~~   ** Supply-to-demand interface deck 1 mass flow rate check value iteration history trace: 4.874917E-002,4.874917E-002,4.874917E-002,4.874917E-002,4.874917E-002,4.874917E-002,4.874917E-002,4.874917E-002,4.874917E-002,4.874917E-002,
   **   ~~~   ** Air System Named = CENTRAL SYSTEM did not converge for energy
   **   ~~~   ** Check values should be zero. Most Recent values listed first.
   **   ~~~   ** Demand-to-Supply interface energy check value iteration history trace: 953.628856,953.628856,953.628855,953.628855,953.628855,953.628855,953.628855,953.628855,953.628855,953.628855,
   **   ~~~   ** Supply-to-demand interface deck 1 energy check value iteration history trace: 1842.864342,1842.864342,1842.864342,1842.864342,1842.864342,1842.864342,1842.864342,1842.864342,1842.864342,1842.864342,
   ** Warning ** SimHVAC: Maximum iterations (20) exceeded for all HVAC loops, at ANNUAL, 10/06 20:00 - 20:15
   **   ~~~   ** The solution for one or more of the Air Loop HVAC systems did not appear to converge
   **   ~~~   ** Air System Named = CENTRAL SYSTEM did not converge for mass flow rate
   **   ~~~   ** Check values should be zero. Most Recent values listed first.
   **   ~~~   ** Demand-to-Supply interface mass flow rate check value iteration history trace: 0.105395,0.105395,0.105395,0.105395,0.105395,0.105395,0.105395,0.105395,0.105395,0.105395,
   **   ~~~   ** Supply-to-demand interface deck 1 mass flow rate check value iteration history trace: 0.105395,0.105395,0.105395,0.105395,0.105395,0.105395,0.105395,0.105395,0.105395,0.105395,
   **   ~~~   ** Air System Named = CENTRAL SYSTEM did not converge for energy
   **   ~~~   ** Check values should be zero. Most Recent values listed first.
   **   ~~~   ** Demand-to-Supply interface energy check value iteration history trace: 2547.894391,2547.894391,2547.894391,2547.894391,2547.894391,2547.894392,2547.894392,2547.894392,2547.894392,2547.894392,
   **   ~~~   ** Supply-to-demand interface deck 1 energy check value iteration history trace: 836.232470,836.232470,836.232471,836.232471,836.232471,836.232471,836.232471,836.232471,836.232471,836.232471,
   ** Warning ** SimHVAC: Maximum iterations (20) exceeded for all HVAC loops, at ANNUAL, 10/12 20:38 - 20:45
   **   ~~~   ** The solution for one or more of the Air Loop HVAC systems did not appear to converge
   **   ~~~   ** Air System Named = CENTRAL SYSTEM did not converge for mass flow rate
   **   ~~~   ** Check values should be zero. Most Recent values listed first.
   **   ~~~   ** Demand-to-Supply interface mass flow rate check value iteration history trace: 0.148591,0.148591,0.148591,0.148591,0.148591,0.148591,0.148591,0.148591,0.148591,0.148591,
   **   ~~~   ** Supply-to-demand interface deck 1 mass flow rate check value iteration history trace: 0.148591,0.148591,0.148591,0.148591,0.148591,0.148591,0.148591,0.148591,0.148591,0.148591,
   **   ~~~   ** Air System Named = CENTRAL SYSTEM did not converge for energy
   **   ~~~   ** Check values should be zero. Most Recent values listed first.
   **   ~~~   ** Demand-to-Supply interface energy check value iteration history trace: 3532.598405,3532.598405,3532.598406,3532.598406,3532.598406,3532.598406,3532.598407,3532.598407,3532.598407,3532.598407,
   **   ~~~   ** Supply-to-demand interface deck 1 energy check value iteration history trace: 1432.039109,1432.039109,1432.039109,1432.039109,1432.039109,1432.039109,1432.039110,1432.039110,1432.039110,1432.039110,
   ** Warning ** SimHVAC: Maximum iterations (20) exceeded for all HVAC loops, at ANNUAL, 10/18 12:45 - 13:00
   **   ~~~   ** The solution for one or more of the Air Loop HVAC systems did not appear to converge
   **   ~~~   ** Air System Named = CENTRAL SYSTEM did not converge for mass flow rate
   **   ~~~   ** Check values should be zero. Most Recent values listed first.
   **   ~~~   ** Demand-to-Supply interface mass flow rate check value iteration history trace: 5.380700E-002,5.380700E-002,5.380700E-002,5.380700E-002,5.380700E-002,5.380700E-002,5.380700E-002,5.380700E-002,5.380700E-002,5.380700E-002,
   **   ~~~   ** Supply-to-demand interface deck 1 mass flow rate check value iteration history trace: 5.380700E-002,5.380700E-002,5.380700E-002,5.380700E-002,5.380700E-002,5.380700E-002,5.380700E-002,5.380700E-002,5.380700E-002,5.380700E-002,
   **   ~~~   ** Air System Named = CENTRAL SYSTEM did not converge for energy
   **   ~~~   ** Check values should be zero. Most Recent values listed first.
   **   ~~~   ** Demand-to-Supply interface energy check value iteration history trace: 1067.470410,1067.470410,1067.470410,1067.470410,1067.470410,1067.470410,1067.470410,1067.470410,1067.470410,1067.470410,
   **   ~~~   ** Supply-to-demand interface deck 1 energy check value iteration history trace: 1963.258695,1963.258695,1963.258695,1963.258695,1963.258695,1963.258695,1963.258695,1963.258695,1963.258695,1963.258695,
   ************* Simulation Error Summary *************
   ** Warning ** The following Report Variables were requested but not generated -- check.rdd file
   **   ~~~   ** Either the IDF did not contain these elements, the variable name is misspelled,
   **   ~~~   ** or the requested variable is an advanced output which requires Output : Diagnostics, DisplayAdvancedReportVariables;
   ************* Key=*, VarName=BASEBOARD TOTAL HEATING ENERGY, Frequency=
   ************* Key=*, VarName=WATER HEATER NATURALGAS ENERGY, Frequency=
   ************* Key=*, VarName=COOLING COIL TOTAL HEATING ENERGY, Frequency=
   ************* There are 34 unused schedules in input.
   ************* There are 388 unused week schedules in input.
   ************* There are 396 unused day schedules in input.
   ************* Use Output:Diagnostics,DisplayUnusedSchedules; to see them.
   *************
   ************* ===== Recurring Error Summary =====
   ************* The following recurring error messages occurred.
   *************
   *************  ** Warning ** "TOTAL HOT WATER LOAD" - Target water temperature should be less than or equal to the hot water temperature error continues...
   *************  **   ~~~   **   This error occurred 50565 total times;
   *************  **   ~~~   **   during Warmup 0 times;
   *************  **   ~~~   **   during Sizing 0 times.
   *************  **   ~~~   **   Max=6.822516  Min=1.111031E-003
   *************
   *************  ** Warning ** SimHVAC: Exceeding Maximum iterations for all HVAC loops, during ANNUAL continues
   *************  **   ~~~   **   This error occurred 5 total times;
   *************  **   ~~~   **   during Warmup 0 times;
   *************  **   ~~~   **   during Sizing 0 times.
   *************
   *************
   ************* ===== Final Error Summary =====
   ************* The following error categories occurred.  Consider correcting or noting.
   ************* Nominally Unused Constructions
   ************* ..The nominally unused constructions warning is provided to alert you to potential conditions that can cause
   ************* ..extra time during simulation. Each construction is calculated by the algorithm indicated in the HeatBalanceAlgorithm
   ************* ..object. You may remove the constructions indicated (when you use the DisplayExtraWarnings option).
   *************
   ************* EnergyPlus Warmup Error Summary. During Warmup: 0 Warning; 0 Severe Errors.
   ************* EnergyPlus Sizing Error Summary. During Sizing: 4 Warning; 0 Severe Errors.
   ************* EnergyPlus Completed Successfully-- 50601 Warning; 0 Severe Errors; Elapsed Time=00hr 01min 22.53sec
