Program Version,EnergyPlus, Version 22.2.0-c249759bad, YMD=2023.09.01 15:02,
   ************* Beginning Zone Sizing Calculations
   ** Warning ** ProcessScheduleInput: Schedule:Constant="ALWAYS ON DISCRETE", Schedule Type Limits Name="ONOFF" not found -- will not be validated
   ** Warning ** Foundation:Kiva="KIVA FOUNDATION", no Interior Horizontal Insulation Material Name defined
   **   ~~~   ** Interior Horizontal Insulation Depth will not be used.
   ** Warning ** CheckUsedConstructions: There are 15 nominally unused constructions in input.
   **   ~~~   ** Each Unused construction is shown.
   ************* Construction=INTERIOR FLOOR
   ************* Construction=INTERIOR WINDOW
   ************* Construction=EXTERIOR DOOR
   ************* Construction=INTERIOR DOOR
   ************* Construction=GABLE CONSTRUCTION
   ************* Construction=CRAWL_FLOOR
   ************* Construction=INSULATED PIPE
   ************* Construction=PLAIN PIPE
   ************* Construction=TDD PIPE
   ************* Construction=TDD DOME
   ************* Construction=TDD DIFFUSER
   ************* Construction=CRAWL WALL
   ************* Construction=CEILING-FLOOR-LAYER
   ************* Construction=SLAB CONSTRUCTION W FULL R10 INSULATION
   ************* Construction=SLAB CONSTRUCTION W FULL R5 INSULATION
   ** Warning ** GetDXCoils: Coil:Heating:DX:SingleSpeed="DX_HEATING_COIL" curve values
   **   ~~~   ** ... Defrost Energy Input Ratio Function of Temperature Curve Name = DEFROSTEIR output is not equal to 1.0 (+ or - 10%) at rated conditions.
   **   ~~~   ** ... Curve output at rated conditions = 0.152
   ************* Beginning System Sizing Calculations
   ************* Beginning Plant Sizing Calculations
   ** Warning ** SizeDXCoil Coil:Cooling:DX:SingleSpeed DX_COOLING_COIL
   **   ~~~   ** ...Gross Rated Total Cooling Capacity [W] will be limited by the maximum rated volume flow per rated total capacity ratio.
   **   ~~~   ** ...DX coil volume flow rate ( m3/s ) = 0.445528
   **   ~~~   ** ...Requested capacity ( W ) = 7338.461
   **   ~~~   ** ...Requested flow/capacity ratio ( m3/s/W ) = 6.071E-005
   **   ~~~   ** ...Maximum flow/capacity ratio ( m3/s/W ) = 6.041E-005
   **   ~~~   ** ...Adjusted capacity ( W ) = 7375.082
   ** Warning ** Coil:WaterHeating:AirToWaterHeatPump:Wrapped "HEAT PUMP WATER HEATER EVAPORATOR": Rated air volume flow rate per watt of rated total water heating capacity is out of range
   **   ~~~   ** Min Rated Vol Flow Per Watt=[4.027E-005], Rated Vol Flow Per Watt=[1.386E-004], Max Rated Vol Flow Per Watt=[8.056E-005]. See Input-Output Reference Manual for valid range.
   ** Warning ** Water heater = WATER HEATER TANK:  Recovery Efficiency and Energy Factor could not be calculated during the test for standard ratings
   **   ~~~   ** Setpoint was never recovered and/or heater never turned on
   ** Warning ** Check input. Pump nominal power or motor efficiency is set to 0, for pump=MAINS PRESSURE
   ** Warning ** Output:Meter: invalid Key Name="ELECTRIC_RANGE:INTERIOREQUIPMENT:ELECTRICITY" - not found.
   ** Warning ** Output:Meter: invalid Key Name="ELECTRIC_DRYER:INTERIOREQUIPMENT:ELECTRICITY" - not found.
   ** Warning ** Output:Meter: invalid Key Name="HEATRECOVERY:ELECTRICITY" - not found.
   ** Warning ** Output:Meter: invalid Key Name="HEATING:NATURALGAS" - not found.
   ** Warning ** Output:Meter: invalid Key Name="WATERSYSTEMS:NATURALGAS" - not found.
   ** Warning ** Output:Meter: invalid Key Name="PROPANE:FACILITY" - not found.
   ** Warning ** Output:Meter: invalid Key Name="HEATING:PROPANE" - not found.
   ************* Testing Individual Branch Integrity
   ************* All Branches passed integrity testing
   ************* Testing Individual Supply Air Path Integrity
   ************* All Supply Air Paths passed integrity testing
   ************* Testing Individual Return Air Path Integrity
   ************* All Return Air Paths passed integrity testing
   ************* No node connection errors were found.
   ************* Beginning Simulation
   ** Warning ** AirflowNetwork::Solver::validate_distribution: Heat pump water heater is simulated along with an AirflowNetwork but is not included in the AirflowNetwork.
   ** Warning ** CalcEquipmentFlowRates: "TOTAL HOT WATER LOAD" - Target water temperature is greater than the hot water temperature by (1.64 C)
   **   ~~~   **  Environment=EXTREME_WINTER, at Simulation time=01/13 06:00 - 06:15
   **   ~~~   ** ...target water temperature     = 53.33 C
   **   ~~~   ** ...hot water temperature        = 51.69 C
   **   ~~~   ** ...Target water temperature should be less than or equal to the hot water temperature. Verify temperature setpoints and schedules.
   ** Warning ** SimHVAC: Maximum iterations (20) exceeded for all HVAC loops, at ANNUAL, 01/03 20:30 - 20:45
   **   ~~~   ** The solution for one or more of the Air Loop HVAC systems did not appear to converge
   **   ~~~   ** Air System Named = CENTRAL SYSTEM did not converge for mass flow rate
   **   ~~~   ** Check values should be zero. Most Recent values listed first.
   **   ~~~   ** Demand-to-Supply interface mass flow rate check value iteration history trace: 7.355669E-002,7.355669E-002,7.355669E-002,7.355669E-002,7.355669E-002,7.355669E-002,7.355669E-002,7.355669E-002,7.355669E-002,7.355669E-002,
   **   ~~~   ** Supply-to-demand interface deck 1 mass flow rate check value iteration history trace: 7.355669E-002,7.355669E-002,7.355669E-002,7.355669E-002,7.355669E-002,7.355669E-002,7.355669E-002,7.355669E-002,7.355669E-002,7.355669E-002,
   **   ~~~   ** Air System Named = CENTRAL SYSTEM did not converge for energy
   **   ~~~   ** Check values should be zero. Most Recent values listed first.
   **   ~~~   ** Demand-to-Supply interface energy check value iteration history trace: 1437.994441,1437.994441,1437.994440,1437.994440,1437.994440,1437.994439,1437.994439,1437.994439,1437.994439,1437.994438,
   **   ~~~   ** Supply-to-demand interface deck 1 energy check value iteration history trace: 2473.303440,2473.303440,2473.303439,2473.303439,2473.303438,2473.303438,2473.303437,2473.303437,2473.303436,2473.303436,
   **   ~~~   ** Node named ZONE INLET NODE shows oscillating temperatures across iterations with a repeated value of 33.462365
   **   ~~~   ** Node named ZONE INLET NODE temperature [C] iteration history trace (most recent first): 33.462365,33.462365,33.462365,33.462365,33.462364,33.462364,33.462364,33.462364,33.462363,33.462363,
   ** Warning ** SimHVAC: Maximum iterations (20) exceeded for all HVAC loops, at ANNUAL, 01/25 20:00 - 20:15
   **   ~~~   ** The solution for one or more of the Air Loop HVAC systems did not appear to converge
   **   ~~~   ** Air System Named = CENTRAL SYSTEM did not converge for mass flow rate
   **   ~~~   ** Check values should be zero. Most Recent values listed first.
   **   ~~~   ** Demand-to-Supply interface mass flow rate check value iteration history trace: 0.124043,0.124043,0.124043,0.124043,0.124043,0.124043,0.124043,0.124043,0.124043,0.124043,
   **   ~~~   ** Supply-to-demand interface deck 1 mass flow rate check value iteration history trace: 0.124043,0.124043,0.124043,0.124043,0.124043,0.124043,0.124043,0.124043,0.124043,0.124043,
   **   ~~~   ** Air System Named = CENTRAL SYSTEM did not converge for energy
   **   ~~~   ** Check values should be zero. Most Recent values listed first.
   **   ~~~   ** Demand-to-Supply interface energy check value iteration history trace: 2423.476126,2423.476126,2423.476126,2423.476125,2423.476125,2423.476125,2423.476125,2423.476125,2423.476125,2423.476124,
   **   ~~~   ** Supply-to-demand interface deck 1 energy check value iteration history trace: 3663.874628,3663.874628,3663.874628,3663.874628,3663.874627,3663.874627,3663.874627,3663.874627,3663.874626,3663.874626,
   ** Warning ** SimHVAC: Maximum iterations (20) exceeded for all HVAC loops, at ANNUAL, 02/02 20:15 - 20:22
   **   ~~~   ** The solution for one or more of the Air Loop HVAC systems did not appear to converge
   **   ~~~   ** Air System Named = CENTRAL SYSTEM did not converge for mass flow rate
   **   ~~~   ** Check values should be zero. Most Recent values listed first.
   **   ~~~   ** Demand-to-Supply interface mass flow rate check value iteration history trace: 7.115353E-002,7.115353E-002,7.115353E-002,7.115353E-002,7.115353E-002,7.115353E-002,7.115353E-002,7.115353E-002,7.115353E-002,7.115353E-002,
   **   ~~~   ** Supply-to-demand interface deck 1 mass flow rate check value iteration history trace: 7.115353E-002,7.115353E-002,7.115353E-002,7.115353E-002,7.115353E-002,7.115353E-002,7.115353E-002,7.115353E-002,7.115353E-002,7.115353E-002,
   **   ~~~   ** Air System Named = CENTRAL SYSTEM did not converge for energy
   **   ~~~   ** Check values should be zero. Most Recent values listed first.
   **   ~~~   ** Demand-to-Supply interface energy check value iteration history trace: 1389.035888,1389.035888,1389.035888,1389.035887,1389.035887,1389.035887,1389.035887,1389.035887,1389.035887,1389.035887,
   **   ~~~   ** Supply-to-demand interface deck 1 energy check value iteration history trace: 2359.977913,2359.977913,2359.977913,2359.977913,2359.977913,2359.977913,2359.977913,2359.977912,2359.977912,2359.977912,
   ** Warning ** SimHVAC: Maximum iterations (20) exceeded for all HVAC loops, at ANNUAL, 02/09 20:00 - 20:15
   **   ~~~   ** The solution for one or more of the Air Loop HVAC systems did not appear to converge
   **   ~~~   ** Air System Named = CENTRAL SYSTEM did not converge for mass flow rate
   **   ~~~   ** Check values should be zero. Most Recent values listed first.
   **   ~~~   ** Demand-to-Supply interface mass flow rate check value iteration history trace: 7.810869E-002,7.810869E-002,7.810869E-002,7.810869E-002,7.810869E-002,7.810869E-002,7.810869E-002,7.810869E-002,7.810869E-002,7.810869E-002,
   **   ~~~   ** Supply-to-demand interface deck 1 mass flow rate check value iteration history trace: 7.810869E-002,7.810869E-002,7.810869E-002,7.810869E-002,7.810869E-002,7.810869E-002,7.810869E-002,7.810869E-002,7.810869E-002,7.810869E-002,
   **   ~~~   ** Air System Named = CENTRAL SYSTEM did not converge for energy
   **   ~~~   ** Check values should be zero. Most Recent values listed first.
   **   ~~~   ** Demand-to-Supply interface energy check value iteration history trace: 1544.247562,1544.247562,1544.247562,1544.247562,1544.247562,1544.247562,1544.247562,1544.247561,1544.247561,1544.247561,
   **   ~~~   ** Supply-to-demand interface deck 1 energy check value iteration history trace: 2591.291867,2591.291867,2591.291866,2591.291866,2591.291866,2591.291866,2591.291866,2591.291866,2591.291866,2591.291865,
   ** Warning ** SimHVAC: Maximum iterations (20) exceeded for all HVAC loops, at ANNUAL, 03/25 09:15 - 09:30
   **   ~~~   ** The solution for one or more of the Air Loop HVAC systems did not appear to converge
   **   ~~~   ** Air System Named = CENTRAL SYSTEM did not converge for mass flow rate
   **   ~~~   ** Check values should be zero. Most Recent values listed first.
   **   ~~~   ** Demand-to-Supply interface mass flow rate check value iteration history trace: 9.209874E-002,9.209874E-002,9.209874E-002,9.209874E-002,9.209874E-002,9.209874E-002,9.209874E-002,9.209874E-002,9.209874E-002,9.209874E-002,
   **   ~~~   ** Supply-to-demand interface deck 1 mass flow rate check value iteration history trace: 9.209874E-002,9.209874E-002,9.209874E-002,9.209874E-002,9.209874E-002,9.209874E-002,9.209874E-002,9.209874E-002,9.209874E-002,9.209874E-002,
   **   ~~~   ** Air System Named = CENTRAL SYSTEM did not converge for energy
   **   ~~~   ** Check values should be zero. Most Recent values listed first.
   **   ~~~   ** Demand-to-Supply interface energy check value iteration history trace: 1825.085314,1825.085314,1825.085314,1825.085314,1825.085314,1825.085314,1825.085313,1825.085313,1825.085313,1825.085313,
   **   ~~~   ** Supply-to-demand interface deck 1 energy check value iteration history trace: 3073.222753,3073.222752,3073.222752,3073.222752,3073.222752,3073.222752,3073.222752,3073.222751,3073.222751,3073.222751,
   ** Warning ** SimHVAC: Maximum iterations (20) exceeded for all HVAC loops, at ANNUAL, 04/02 08:45 - 08:47
   **   ~~~   ** The solution for one or more of the Air Loop HVAC systems did not appear to converge
   **   ~~~   ** Air System Named = CENTRAL SYSTEM did not converge for mass flow rate
   **   ~~~   ** Check values should be zero. Most Recent values listed first.
   **   ~~~   ** Demand-to-Supply interface mass flow rate check value iteration history trace: 8.538903E-002,8.538903E-002,8.538903E-002,8.538903E-002,8.538903E-002,8.538903E-002,8.538903E-002,8.538903E-002,8.538903E-002,8.538903E-002,
   **   ~~~   ** Supply-to-demand interface deck 1 mass flow rate check value iteration history trace: 8.538903E-002,8.538903E-002,8.538903E-002,8.538903E-002,8.538903E-002,8.538903E-002,8.538903E-002,8.538903E-002,8.538903E-002,8.538903E-002,
   **   ~~~   ** Air System Named = CENTRAL SYSTEM did not converge for energy
   **   ~~~   ** Check values should be zero. Most Recent values listed first.
   **   ~~~   ** Demand-to-Supply interface energy check value iteration history trace: 1692.139019,1692.139019,1692.139019,1692.139019,1692.139019,1692.139019,1692.139018,1692.139018,1692.139018,1692.139018,
   **   ~~~   ** Supply-to-demand interface deck 1 energy check value iteration history trace: 2968.015612,2968.015612,2968.015612,2968.015612,2968.015612,2968.015612,2968.015612,2968.015611,2968.015611,2968.015611,
   ** Warning ** SimHVAC: Maximum iterations (20) exceeded for all HVAC loops, at ANNUAL, 04/08 08:45 - 09:00
   **   ~~~   ** The solution for one or more of the Air Loop HVAC systems did not appear to converge
   **   ~~~   ** Air System Named = CENTRAL SYSTEM did not converge for mass flow rate
   **   ~~~   ** Check values should be zero. Most Recent values listed first.
   **   ~~~   ** Demand-to-Supply interface mass flow rate check value iteration history trace: 7.210828E-002,7.210828E-002,7.210828E-002,7.210828E-002,7.210828E-002,7.210828E-002,7.210828E-002,7.210828E-002,7.210828E-002,7.210828E-002,
   **   ~~~   ** Supply-to-demand interface deck 1 mass flow rate check value iteration history trace: 7.210828E-002,7.210828E-002,7.210828E-002,7.210828E-002,7.210828E-002,7.210828E-002,7.210828E-002,7.210828E-002,7.210828E-002,7.210828E-002,
   **   ~~~   ** Air System Named = CENTRAL SYSTEM did not converge for energy
   **   ~~~   ** Check values should be zero. Most Recent values listed first.
   **   ~~~   ** Demand-to-Supply interface energy check value iteration history trace: 1427.513726,1427.513726,1427.513726,1427.513726,1427.513726,1427.513726,1427.513726,1427.513726,1427.513726,1427.513726,
   **   ~~~   ** Supply-to-demand interface deck 1 energy check value iteration history trace: 2526.588282,2526.588282,2526.588282,2526.588282,2526.588282,2526.588282,2526.588282,2526.588282,2526.588282,2526.588281,
   ** Warning ** SimHVAC: Maximum iterations (20) exceeded for all HVAC loops, at ANNUAL, 04/22 09:15 - 09:30
   **   ~~~   ** The solution for one or more of the Air Loop HVAC systems did not appear to converge
   **   ~~~   ** Air System Named = CENTRAL SYSTEM did not converge for mass flow rate
   **   ~~~   ** Check values should be zero. Most Recent values listed first.
   **   ~~~   ** Demand-to-Supply interface mass flow rate check value iteration history trace: 6.097222E-002,6.097222E-002,6.097222E-002,6.097222E-002,6.097222E-002,6.097222E-002,6.097222E-002,6.097222E-002,6.097222E-002,6.097222E-002,
   **   ~~~   ** Supply-to-demand interface deck 1 mass flow rate check value iteration history trace: 6.097222E-002,6.097222E-002,6.097222E-002,6.097222E-002,6.097222E-002,6.097222E-002,6.097222E-002,6.097222E-002,6.097222E-002,6.097222E-002,
   **   ~~~   ** Air System Named = CENTRAL SYSTEM did not converge for energy
   **   ~~~   ** Check values should be zero. Most Recent values listed first.
   **   ~~~   ** Demand-to-Supply interface energy check value iteration history trace: 1205.167321,1205.167321,1205.167321,1205.167321,1205.167321,1205.167321,1205.167321,1205.167321,1205.167321,1205.167321,
   **   ~~~   ** Supply-to-demand interface deck 1 energy check value iteration history trace: 2188.030264,2188.030264,2188.030264,2188.030264,2188.030263,2188.030263,2188.030263,2188.030263,2188.030263,2188.030263,
   ** Warning ** SimHVAC: Maximum iterations (20) exceeded for all HVAC loops, at ANNUAL, 04/23 10:19 - 10:22
   **   ~~~   ** The solution for one or more of the Air Loop HVAC systems did not appear to converge
   **   ~~~   ** Air System Named = CENTRAL SYSTEM did not converge for mass flow rate
   **   ~~~   ** Check values should be zero. Most Recent values listed first.
   **   ~~~   ** Demand-to-Supply interface mass flow rate check value iteration history trace: 6.965926E-002,6.965926E-002,6.965926E-002,6.965926E-002,6.965926E-002,6.965926E-002,6.965926E-002,6.965926E-002,6.965926E-002,6.965926E-002,
   **   ~~~   ** Supply-to-demand interface deck 1 mass flow rate check value iteration history trace: 6.965926E-002,6.965926E-002,6.965926E-002,6.965926E-002,6.965926E-002,6.965926E-002,6.965926E-002,6.965926E-002,6.965926E-002,6.965926E-002,
   **   ~~~   ** Air System Named = CENTRAL SYSTEM did not converge for energy
   **   ~~~   ** Check values should be zero. Most Recent values listed first.
   **   ~~~   ** Demand-to-Supply interface energy check value iteration history trace: 1371.981577,1371.981577,1371.981577,1371.981577,1371.981577,1371.981577,1371.981577,1371.981577,1371.981577,1371.981577,
   **   ~~~   ** Supply-to-demand interface deck 1 energy check value iteration history trace: 2501.942327,2501.942326,2501.942326,2501.942326,2501.942326,2501.942326,2501.942326,2501.942326,2501.942326,2501.942326,
   ** Warning ** SimHVAC: Maximum iterations (20) exceeded for all HVAC loops, at ANNUAL, 04/23 10:57 - 11:00
   **   ~~~   ** The solution for one or more of the Air Loop HVAC systems did not appear to converge
   **   ~~~   ** Air System Named = CENTRAL SYSTEM did not converge for mass flow rate
   **   ~~~   ** Check values should be zero. Most Recent values listed first.
   **   ~~~   ** Demand-to-Supply interface mass flow rate check value iteration history trace: 6.625704E-002,6.625704E-002,6.625704E-002,6.625704E-002,6.625704E-002,6.625704E-002,6.625704E-002,6.625704E-002,6.625704E-002,6.625704E-002,
   **   ~~~   ** Supply-to-demand interface deck 1 mass flow rate check value iteration history trace: 6.625704E-002,6.625704E-002,6.625704E-002,6.625704E-002,6.625704E-002,6.625704E-002,6.625704E-002,6.625704E-002,6.625704E-002,6.625704E-002,
   **   ~~~   ** Air System Named = CENTRAL SYSTEM did not converge for energy
   **   ~~~   ** Check values should be zero. Most Recent values listed first.
   **   ~~~   ** Demand-to-Supply interface energy check value iteration history trace: 1302.498450,1302.498450,1302.498450,1302.498450,1302.498450,1302.498450,1302.498450,1302.498450,1302.498450,1302.498450,
   **   ~~~   ** Supply-to-demand interface deck 1 energy check value iteration history trace: 2385.186774,2385.186774,2385.186774,2385.186774,2385.186774,2385.186774,2385.186774,2385.186774,2385.186774,2385.186773,
   ** Warning ** SimHVAC: Maximum iterations (20) exceeded for all HVAC loops, at ANNUAL, 05/02 08:02 - 08:05
   **   ~~~   ** The solution for one or more of the Air Loop HVAC systems did not appear to converge
   **   ~~~   ** Air System Named = CENTRAL SYSTEM did not converge for mass flow rate
   **   ~~~   ** Check values should be zero. Most Recent values listed first.
   **   ~~~   ** Demand-to-Supply interface mass flow rate check value iteration history trace: 7.436791E-002,7.436791E-002,7.436791E-002,7.436791E-002,7.436791E-002,7.436791E-002,7.436791E-002,7.436791E-002,7.436791E-002,7.436790E-002,
   **   ~~~   ** Supply-to-demand interface deck 1 mass flow rate check value iteration history trace: 7.436791E-002,7.436791E-002,7.436791E-002,7.436791E-002,7.436791E-002,7.436791E-002,7.436791E-002,7.436791E-002,7.436791E-002,7.436790E-002,
   **   ~~~   ** Air System Named = CENTRAL SYSTEM did not converge for energy
   **   ~~~   ** Check values should be zero. Most Recent values listed first.
   **   ~~~   ** Demand-to-Supply interface energy check value iteration history trace: 1467.998716,1467.998716,1467.998716,1467.998716,1467.998716,1467.998716,1467.998716,1467.998716,1467.998716,1467.998716,
   **   ~~~   ** Supply-to-demand interface deck 1 energy check value iteration history trace: 2638.205402,2638.205402,2638.205402,2638.205402,2638.205402,2638.205402,2638.205402,2638.205402,2638.205402,2638.205402,
   ** Warning ** SimHVAC: Maximum iterations (20) exceeded for all HVAC loops, at ANNUAL, 05/11 07:40 - 07:45
   **   ~~~   ** The solution for one or more of the Air Loop HVAC systems did not appear to converge
   **   ~~~   ** Air System Named = CENTRAL SYSTEM did not converge for mass flow rate
   **   ~~~   ** Check values should be zero. Most Recent values listed first.
   **   ~~~   ** Demand-to-Supply interface mass flow rate check value iteration history trace: 0.365917,0.365917,0.365917,0.365917,0.365917,0.365917,0.365917,0.365917,0.365917,0.365917,
   **   ~~~   ** Supply-to-demand interface deck 1 mass flow rate check value iteration history trace: 0.365917,0.365917,0.365917,0.365917,0.365917,0.365917,0.365917,0.365917,0.365917,0.365917,
   **   ~~~   ** Air System Named = CENTRAL SYSTEM did not converge for energy
   **   ~~~   ** Check values should be zero. Most Recent values listed first.
   **   ~~~   ** Demand-to-Supply interface energy check value iteration history trace: 8799.613788,8799.613789,8799.613790,8799.613791,8799.613791,8799.613792,8799.613793,8799.613794,8799.613795,8799.613795,
   **   ~~~   ** Supply-to-demand interface deck 1 energy check value iteration history trace: 5022.321975,5022.321975,5022.321976,5022.321976,5022.321976,5022.321977,5022.321977,5022.321978,5022.321978,5022.321979,
   ** Warning ** SimHVAC: Maximum iterations (20) exceeded for all HVAC loops, at ANNUAL, 05/16 07:32 - 07:34
   **   ~~~   ** The solution for one or more of the Air Loop HVAC systems did not appear to converge
   **   ~~~   ** Air System Named = CENTRAL SYSTEM did not converge for mass flow rate
   **   ~~~   ** Check values should be zero. Most Recent values listed first.
   **   ~~~   ** Demand-to-Supply interface mass flow rate check value iteration history trace: 7.741640E-002,7.741640E-002,7.741640E-002,7.741640E-002,7.741640E-002,7.741640E-002,7.741640E-002,7.741640E-002,7.741640E-002,7.741640E-002,
   **   ~~~   ** Supply-to-demand interface deck 1 mass flow rate check value iteration history trace: 7.741640E-002,7.741640E-002,7.741640E-002,7.741640E-002,7.741640E-002,7.741640E-002,7.741640E-002,7.741640E-002,7.741640E-002,7.741640E-002,
   **   ~~~   ** Air System Named = CENTRAL SYSTEM did not converge for energy
   **   ~~~   ** Check values should be zero. Most Recent values listed first.
   **   ~~~   ** Demand-to-Supply interface energy check value iteration history trace: 1528.339090,1528.339090,1528.339090,1528.339090,1528.339090,1528.339090,1528.339090,1528.339090,1528.339089,1528.339089,
   **   ~~~   ** Supply-to-demand interface deck 1 energy check value iteration history trace: 2651.661404,2651.661404,2651.661404,2651.661404,2651.661404,2651.661404,2651.661404,2651.661403,2651.661403,2651.661403,
   ** Warning ** SimHVAC: Maximum iterations (20) exceeded for all HVAC loops, at ANNUAL, 10/18 21:15 - 21:30
   **   ~~~   ** The solution for one or more of the Air Loop HVAC systems did not appear to converge
   **   ~~~   ** Air System Named = CENTRAL SYSTEM did not converge for mass flow rate
   **   ~~~   ** Check values should be zero. Most Recent values listed first.
   **   ~~~   ** Demand-to-Supply interface mass flow rate check value iteration history trace: 0.114258,0.114258,0.114258,0.114258,0.114258,0.114258,0.114258,0.114258,0.114258,0.114258,
   **   ~~~   ** Supply-to-demand interface deck 1 mass flow rate check value iteration history trace: 0.114258,0.114258,0.114258,0.114258,0.114258,0.114258,0.114258,0.114258,0.114258,0.114258,
   **   ~~~   ** Air System Named = CENTRAL SYSTEM did not converge for energy
   **   ~~~   ** Check values should be zero. Most Recent values listed first.
   **   ~~~   ** Demand-to-Supply interface energy check value iteration history trace: 2756.048422,2756.048423,2756.048423,2756.048423,2756.048423,2756.048423,2756.048423,2756.048424,2756.048424,2756.048424,
   **   ~~~   ** Supply-to-demand interface deck 1 energy check value iteration history trace: 1281.340543,1281.340543,1281.340543,1281.340543,1281.340543,1281.340544,1281.340544,1281.340544,1281.340544,1281.340544,
   ************* Simulation Error Summary *************
   ** Warning ** The following Report Variables were requested but not generated -- check.rdd file
   **   ~~~   ** Either the IDF did not contain these elements, the variable name is misspelled,
   **   ~~~   ** or the requested variable is an advanced output which requires Output : Diagnostics, DisplayAdvancedReportVariables;
   ************* Key=*, VarName=BASEBOARD TOTAL HEATING ENERGY, Frequency=
   ************* Key=*, VarName=WATER HEATER NATURALGAS ENERGY, Frequency=
   ************* Key=*, VarName=COOLING COIL TOTAL HEATING ENERGY, Frequency=
   ************* There are 34 unused schedules in input.
   ************* There are 388 unused week schedules in input.
   ************* There are 396 unused day schedules in input.
   ************* Use Output:Diagnostics,DisplayUnusedSchedules; to see them.
   *************
   ************* ===== Recurring Error Summary =====
   ************* The following recurring error messages occurred.
   *************
   *************  ** Warning ** "TOTAL HOT WATER LOAD" - Target water temperature should be less than or equal to the hot water temperature error continues...
   *************  **   ~~~   **   This error occurred 93167 total times;
   *************  **   ~~~   **   during Warmup 0 times;
   *************  **   ~~~   **   during Sizing 0 times.
   *************  **   ~~~   **   Max=9.733842  Min=1.092068E-004
   *************
   *************  ** Warning ** SimHVAC: Exceeding Maximum iterations for all HVAC loops, during ANNUAL continues
   *************  **   ~~~   **   This error occurred 1 total times;
   *************  **   ~~~   **   during Warmup 0 times;
   *************  **   ~~~   **   during Sizing 0 times.
   *************
   *************
   ************* ===== Final Error Summary =====
   ************* The following error categories occurred.  Consider correcting or noting.
   ************* Nominally Unused Constructions
   ************* ..The nominally unused constructions warning is provided to alert you to potential conditions that can cause
   ************* ..extra time during simulation. Each construction is calculated by the algorithm indicated in the HeatBalanceAlgorithm
   ************* ..object. You may remove the constructions indicated (when you use the DisplayExtraWarnings option).
   *************
   ************* EnergyPlus Warmup Error Summary. During Warmup: 1 Warning; 0 Severe Errors.
   ************* EnergyPlus Sizing Error Summary. During Sizing: 4 Warning; 0 Severe Errors.
   ************* EnergyPlus Completed Successfully-- 93200 Warning; 0 Severe Errors; Elapsed Time=00hr 05min 26.66sec
