Program Version,EnergyPlus, Version 22.2.0-c249759bad, YMD=2023.09.01 19:33,
   ************* Beginning Zone Sizing Calculations
   ** Warning ** ProcessScheduleInput: Schedule:Constant="ALWAYS ON DISCRETE", Schedule Type Limits Name="ONOFF" not found -- will not be validated
   ** Warning ** Foundation:Kiva="KIVA FOUNDATION", no Interior Horizontal Insulation Material Name defined
   **   ~~~   ** Interior Horizontal Insulation Depth will not be used.
   ** Warning ** CheckUsedConstructions: There are 15 nominally unused constructions in input.
   **   ~~~   ** Each Unused construction is shown.
   ************* Construction=INTERIOR FLOOR
   ************* Construction=INTERIOR WINDOW
   ************* Construction=EXTERIOR DOOR
   ************* Construction=INTERIOR DOOR
   ************* Construction=GABLE CONSTRUCTION
   ************* Construction=CRAWL_FLOOR
   ************* Construction=INSULATED PIPE
   ************* Construction=PLAIN PIPE
   ************* Construction=TDD PIPE
   ************* Construction=TDD DOME
   ************* Construction=TDD DIFFUSER
   ************* Construction=CRAWL WALL
   ************* Construction=CEILING-FLOOR-LAYER
   ************* Construction=SLAB CONSTRUCTION W FULL R10 INSULATION
   ************* Construction=SLAB CONSTRUCTION W FULL R5 INSULATION
   ** Warning ** GetDXCoils: Coil:Heating:DX:SingleSpeed="DX_HEATING_COIL" curve values
   **   ~~~   ** ... Defrost Energy Input Ratio Function of Temperature Curve Name = DEFROSTEIR output is not equal to 1.0 (+ or - 10%) at rated conditions.
   **   ~~~   ** ... Curve output at rated conditions = 0.152
   ************* Beginning System Sizing Calculations
   ************* Beginning Plant Sizing Calculations
   ** Warning ** SizeDXCoil Coil:Cooling:DX:SingleSpeed DX_COOLING_COIL
   **   ~~~   ** ...Gross Rated Total Cooling Capacity [W] will be limited by the maximum rated volume flow per rated total capacity ratio.
   **   ~~~   ** ...DX coil volume flow rate ( m3/s ) = 0.543845
   **   ~~~   ** ...Requested capacity ( W ) = 7450.570
   **   ~~~   ** ...Requested flow/capacity ratio ( m3/s/W ) = 7.299E-005
   **   ~~~   ** ...Maximum flow/capacity ratio ( m3/s/W ) = 6.041E-005
   **   ~~~   ** ...Adjusted capacity ( W ) = 9002.569
   ** Warning ** Coil:WaterHeating:AirToWaterHeatPump:Wrapped "HEAT PUMP WATER HEATER EVAPORATOR": Rated air volume flow rate per watt of rated total water heating capacity is out of range
   **   ~~~   ** Min Rated Vol Flow Per Watt=[4.027E-005], Rated Vol Flow Per Watt=[1.510E-004], Max Rated Vol Flow Per Watt=[8.056E-005]. See Input-Output Reference Manual for valid range.
   ************* SizeFan: : Potential issue with equipment sizing for Fan:OnOff HEAT PUMP WATER HEATER FAN
   **   ~~~   ** User-Specified Maximum Flow Rate [m3/s] = 0.22653
   **   ~~~   ** differs from Design Size Maximum Flow Rate [m3/s] = 7.55250E-002
   **   ~~~   ** This may, or may not, indicate mismatched component sizes.
   **   ~~~   ** Verify that the value entered is intended and is consistent with other components.
   ** Warning ** Water heater = WATER HEATER TANK:  Recovery Efficiency and Energy Factor could not be calculated during the test for standard ratings
   **   ~~~   ** Setpoint was never recovered and/or heater never turned on
   ** Warning ** Check input. Pump nominal power or motor efficiency is set to 0, for pump=MAINS PRESSURE
   ** Warning ** Output:Meter: invalid Key Name="ELECTRIC_RANGE:INTERIOREQUIPMENT:ELECTRICITY" - not found.
   ** Warning ** Output:Meter: invalid Key Name="ELECTRIC_DRYER:INTERIOREQUIPMENT:ELECTRICITY" - not found.
   ** Warning ** Output:Meter: invalid Key Name="HEATRECOVERY:ELECTRICITY" - not found.
   ** Warning ** Output:Meter: invalid Key Name="HEATING:NATURALGAS" - not found.
   ** Warning ** Output:Meter: invalid Key Name="WATERSYSTEMS:NATURALGAS" - not found.
   ** Warning ** Output:Meter: invalid Key Name="PROPANE:FACILITY" - not found.
   ** Warning ** Output:Meter: invalid Key Name="HEATING:PROPANE" - not found.
   ************* Testing Individual Branch Integrity
   ************* All Branches passed integrity testing
   ************* Testing Individual Supply Air Path Integrity
   ************* All Supply Air Paths passed integrity testing
   ************* Testing Individual Return Air Path Integrity
   ************* All Return Air Paths passed integrity testing
   ************* No node connection errors were found.
   ************* Beginning Simulation
   ** Warning ** AirflowNetwork::Solver::validate_distribution: Heat pump water heater is simulated along with an AirflowNetwork but is not included in the AirflowNetwork.
   ** Warning ** CalcEquipmentFlowRates: "TOTAL HOT WATER LOAD" - Target water temperature is greater than the hot water temperature by (0.18 C)
   **   ~~~   **  Environment=EXTREME_WINTER, at Simulation time=01/13 06:00 - 06:15
   **   ~~~   ** ...target water temperature     = 53.33 C
   **   ~~~   ** ...hot water temperature        = 53.16 C
   **   ~~~   ** ...Target water temperature should be less than or equal to the hot water temperature. Verify temperature setpoints and schedules.
   ** Warning ** SimHVAC: Maximum iterations (20) exceeded for all HVAC loops, at EXTREME_SUMMER, 07/22 05:23 - 05:30
   **   ~~~   ** The solution for one or more of the Air Loop HVAC systems did not appear to converge
   **   ~~~   ** Air System Named = CENTRAL SYSTEM did not converge for mass flow rate
   **   ~~~   ** Check values should be zero. Most Recent values listed first.
   **   ~~~   ** Demand-to-Supply interface mass flow rate check value iteration history trace: 0.221058,0.221058,0.221058,0.221058,0.221058,0.221058,0.221058,0.221058,0.221058,0.221058,
   **   ~~~   ** Supply-to-demand interface deck 1 mass flow rate check value iteration history trace: 0.221058,0.221058,0.221058,0.221058,0.221058,0.221058,0.221058,0.221058,0.221058,0.221058,
   **   ~~~   ** Air System Named = CENTRAL SYSTEM did not converge for energy
   **   ~~~   ** Check values should be zero. Most Recent values listed first.
   **   ~~~   ** Demand-to-Supply interface energy check value iteration history trace: 5305.872363,5305.872364,5305.872365,5305.872366,5305.872368,5305.872369,5305.872370,5305.872372,5305.872373,5305.872374,
   **   ~~~   ** Supply-to-demand interface deck 1 energy check value iteration history trace: 2338.029968,2338.029969,2338.029970,2338.029970,2338.029971,2338.029971,2338.029972,2338.029972,2338.029973,2338.029974,
   ** Warning ** SimHVAC: Maximum iterations (20) exceeded for all HVAC loops, at ANNUAL, 01/07 09:23 - 09:26
   **   ~~~   ** The solution for one or more of the Air Loop HVAC systems did not appear to converge
   **   ~~~   ** Air System Named = CENTRAL SYSTEM did not converge for mass flow rate
   **   ~~~   ** Check values should be zero. Most Recent values listed first.
   **   ~~~   ** Demand-to-Supply interface mass flow rate check value iteration history trace: 5.370984E-002,5.370984E-002,5.370984E-002,5.370984E-002,5.370984E-002,5.370984E-002,5.370984E-002,5.370984E-002,5.370984E-002,5.370984E-002,
   **   ~~~   ** Supply-to-demand interface deck 1 mass flow rate check value iteration history trace: 5.370984E-002,5.370984E-002,5.370984E-002,5.370984E-002,5.370984E-002,5.370984E-002,5.370984E-002,5.370984E-002,5.370984E-002,5.370984E-002,
   **   ~~~   ** Air System Named = CENTRAL SYSTEM did not converge for energy
   **   ~~~   ** Check values should be zero. Most Recent values listed first.
   **   ~~~   ** Demand-to-Supply interface energy check value iteration history trace: 1059.125807,1059.125807,1059.125807,1059.125807,1059.125806,1059.125806,1059.125806,1059.125806,1059.125806,1059.125806,
   **   ~~~   ** Supply-to-demand interface deck 1 energy check value iteration history trace: 1999.036457,1999.036457,1999.036456,1999.036456,1999.036456,1999.036456,1999.036456,1999.036456,1999.036456,1999.036456,
   ** Warning ** SimHVAC: Maximum iterations (20) exceeded for all HVAC loops, at ANNUAL, 01/10 09:04 - 09:06
   **   ~~~   ** The solution for one or more of the Air Loop HVAC systems did not appear to converge
   **   ~~~   ** Air System Named = CENTRAL SYSTEM did not converge for mass flow rate
   **   ~~~   ** Check values should be zero. Most Recent values listed first.
   **   ~~~   ** Demand-to-Supply interface mass flow rate check value iteration history trace: 6.989246E-002,6.989246E-002,6.989246E-002,6.989246E-002,6.989246E-002,6.989246E-002,6.989246E-002,6.989246E-002,6.989246E-002,6.989246E-002,
   **   ~~~   ** Supply-to-demand interface deck 1 mass flow rate check value iteration history trace: 6.989246E-002,6.989246E-002,6.989246E-002,6.989246E-002,6.989246E-002,6.989246E-002,6.989246E-002,6.989246E-002,6.989246E-002,6.989246E-002,
   **   ~~~   ** Air System Named = CENTRAL SYSTEM did not converge for energy
   **   ~~~   ** Check values should be zero. Most Recent values listed first.
   **   ~~~   ** Demand-to-Supply interface energy check value iteration history trace: 1382.872274,1382.872274,1382.872274,1382.872274,1382.872273,1382.872273,1382.872273,1382.872273,1382.872273,1382.872273,
   **   ~~~   ** Supply-to-demand interface deck 1 energy check value iteration history trace: 2303.871456,2303.871456,2303.871456,2303.871456,2303.871456,2303.871456,2303.871456,2303.871456,2303.871455,2303.871455,
   ** Warning ** SimHVAC: Maximum iterations (20) exceeded for all HVAC loops, at ANNUAL, 01/10 09:17 - 09:18
   **   ~~~   ** The solution for one or more of the Air Loop HVAC systems did not appear to converge
   **   ~~~   ** Air System Named = CENTRAL SYSTEM did not converge for mass flow rate
   **   ~~~   ** Check values should be zero. Most Recent values listed first.
   **   ~~~   ** Demand-to-Supply interface mass flow rate check value iteration history trace: 6.701960E-002,6.701960E-002,6.701960E-002,6.701960E-002,6.701960E-002,6.701960E-002,6.701960E-002,6.701960E-002,6.701960E-002,6.701960E-002,
   **   ~~~   ** Supply-to-demand interface deck 1 mass flow rate check value iteration history trace: 6.701960E-002,6.701960E-002,6.701960E-002,6.701960E-002,6.701960E-002,6.701960E-002,6.701960E-002,6.701960E-002,6.701960E-002,6.701960E-002,
   **   ~~~   ** Air System Named = CENTRAL SYSTEM did not converge for energy
   **   ~~~   ** Check values should be zero. Most Recent values listed first.
   **   ~~~   ** Demand-to-Supply interface energy check value iteration history trace: 1324.341029,1324.341029,1324.341029,1324.341029,1324.341029,1324.341029,1324.341029,1324.341028,1324.341028,1324.341028,
   **   ~~~   ** Supply-to-demand interface deck 1 energy check value iteration history trace: 2218.686338,2218.686338,2218.686338,2218.686338,2218.686338,2218.686337,2218.686337,2218.686337,2218.686337,2218.686337,
   ** Warning ** SimHVAC: Maximum iterations (20) exceeded for all HVAC loops, at ANNUAL, 01/17 10:15 - 10:30
   **   ~~~   ** The solution for one or more of the Air Loop HVAC systems did not appear to converge
   **   ~~~   ** Air System Named = CENTRAL SYSTEM did not converge for mass flow rate
   **   ~~~   ** Check values should be zero. Most Recent values listed first.
   **   ~~~   ** Demand-to-Supply interface mass flow rate check value iteration history trace: 5.746728E-002,5.746728E-002,5.746728E-002,5.746728E-002,5.746728E-002,5.746728E-002,5.746728E-002,5.746728E-002,5.746728E-002,5.746728E-002,
   **   ~~~   ** Supply-to-demand interface deck 1 mass flow rate check value iteration history trace: 5.746728E-002,5.746728E-002,5.746728E-002,5.746728E-002,5.746728E-002,5.746728E-002,5.746728E-002,5.746728E-002,5.746728E-002,5.746728E-002,
   **   ~~~   ** Air System Named = CENTRAL SYSTEM did not converge for energy
   **   ~~~   ** Check values should be zero. Most Recent values listed first.
   **   ~~~   ** Demand-to-Supply interface energy check value iteration history trace: 1138.821243,1138.821243,1138.821243,1138.821243,1138.821243,1138.821243,1138.821243,1138.821242,1138.821242,1138.821242,
   **   ~~~   ** Supply-to-demand interface deck 1 energy check value iteration history trace: 1816.400510,1816.400510,1816.400510,1816.400510,1816.400510,1816.400510,1816.400510,1816.400510,1816.400509,1816.400509,
   ** Warning ** SimHVAC: Maximum iterations (20) exceeded for all HVAC loops, at ANNUAL, 01/21 10:11 - 10:12
   **   ~~~   ** The solution for one or more of the Air Loop HVAC systems did not appear to converge
   **   ~~~   ** Air System Named = CENTRAL SYSTEM did not converge for mass flow rate
   **   ~~~   ** Check values should be zero. Most Recent values listed first.
   **   ~~~   ** Demand-to-Supply interface mass flow rate check value iteration history trace: 5.586678E-002,5.586678E-002,5.586678E-002,5.586678E-002,5.586678E-002,5.586678E-002,5.586678E-002,5.586678E-002,5.586678E-002,5.586678E-002,
   **   ~~~   ** Supply-to-demand interface deck 1 mass flow rate check value iteration history trace: 5.586678E-002,5.586678E-002,5.586678E-002,5.586678E-002,5.586678E-002,5.586678E-002,5.586678E-002,5.586678E-002,5.586678E-002,5.586678E-002,
   **   ~~~   ** Air System Named = CENTRAL SYSTEM did not converge for energy
   **   ~~~   ** Check values should be zero. Most Recent values listed first.
   **   ~~~   ** Demand-to-Supply interface energy check value iteration history trace: 1102.636278,1102.636278,1102.636278,1102.636278,1102.636278,1102.636278,1102.636278,1102.636278,1102.636278,1102.636278,
   **   ~~~   ** Supply-to-demand interface deck 1 energy check value iteration history trace: 2029.976899,2029.976899,2029.976899,2029.976899,2029.976899,2029.976899,2029.976899,2029.976899,2029.976899,2029.976899,
   ** Warning ** SimHVAC: Maximum iterations (20) exceeded for all HVAC loops, at ANNUAL, 02/05 08:30 - 08:45
   **   ~~~   ** The solution for one or more of the Air Loop HVAC systems did not appear to converge
   **   ~~~   ** Air System Named = CENTRAL SYSTEM did not converge for mass flow rate
   **   ~~~   ** Check values should be zero. Most Recent values listed first.
   **   ~~~   ** Demand-to-Supply interface mass flow rate check value iteration history trace: 7.747156E-002,7.747156E-002,7.747156E-002,7.747156E-002,7.747156E-002,7.747156E-002,7.747156E-002,7.747156E-002,7.747156E-002,7.747156E-002,
   **   ~~~   ** Supply-to-demand interface deck 1 mass flow rate check value iteration history trace: 7.747156E-002,7.747156E-002,7.747156E-002,7.747156E-002,7.747156E-002,7.747156E-002,7.747156E-002,7.747156E-002,7.747156E-002,7.747156E-002,
   **   ~~~   ** Air System Named = CENTRAL SYSTEM did not converge for energy
   **   ~~~   ** Check values should be zero. Most Recent values listed first.
   **   ~~~   ** Demand-to-Supply interface energy check value iteration history trace: 1535.096554,1535.096554,1535.096554,1535.096554,1535.096554,1535.096554,1535.096554,1535.096554,1535.096553,1535.096553,
   **   ~~~   ** Supply-to-demand interface deck 1 energy check value iteration history trace: 2511.003091,2511.003091,2511.003091,2511.003091,2511.003091,2511.003091,2511.003090,2511.003090,2511.003090,2511.003090,
   ** Warning ** SimHVAC: Maximum iterations (20) exceeded for all HVAC loops, at ANNUAL, 02/10 06:30 - 06:35
   **   ~~~   ** The solution for one or more of the Air Loop HVAC systems did not appear to converge
   **   ~~~   ** Air System Named = CENTRAL SYSTEM did not converge for mass flow rate
   **   ~~~   ** Check values should be zero. Most Recent values listed first.
   **   ~~~   ** Demand-to-Supply interface mass flow rate check value iteration history trace: 5.483899E-002,5.483899E-002,5.483899E-002,5.483899E-002,5.483899E-002,5.483899E-002,5.483899E-002,5.483899E-002,5.483899E-002,5.483899E-002,
   **   ~~~   ** Supply-to-demand interface deck 1 mass flow rate check value iteration history trace: 5.483899E-002,5.483899E-002,5.483899E-002,5.483899E-002,5.483899E-002,5.483899E-002,5.483899E-002,5.483899E-002,5.483899E-002,5.483899E-002,
   **   ~~~   ** Air System Named = CENTRAL SYSTEM did not converge for energy
   **   ~~~   ** Check values should be zero. Most Recent values listed first.
   **   ~~~   ** Demand-to-Supply interface energy check value iteration history trace: 1087.043289,1087.043289,1087.043289,1087.043289,1087.043289,1087.043289,1087.043289,1087.043289,1087.043289,1087.043289,
   **   ~~~   ** Supply-to-demand interface deck 1 energy check value iteration history trace: 1980.715491,1980.715491,1980.715491,1980.715491,1980.715491,1980.715491,1980.715491,1980.715491,1980.715491,1980.715491,
   ** Warning ** SimHVAC: Maximum iterations (20) exceeded for all HVAC loops, at ANNUAL, 02/18 08:11 - 08:15
   **   ~~~   ** The solution for one or more of the Air Loop HVAC systems did not appear to converge
   **   ~~~   ** Air System Named = CENTRAL SYSTEM did not converge for mass flow rate
   **   ~~~   ** Check values should be zero. Most Recent values listed first.
   **   ~~~   ** Demand-to-Supply interface mass flow rate check value iteration history trace: 5.731723E-002,5.731723E-002,5.731723E-002,5.731723E-002,5.731723E-002,5.731723E-002,5.731723E-002,5.731723E-002,5.731723E-002,5.731723E-002,
   **   ~~~   ** Supply-to-demand interface deck 1 mass flow rate check value iteration history trace: 5.731723E-002,5.731723E-002,5.731723E-002,5.731723E-002,5.731723E-002,5.731723E-002,5.731723E-002,5.731723E-002,5.731723E-002,5.731723E-002,
   **   ~~~   ** Air System Named = CENTRAL SYSTEM did not converge for energy
   **   ~~~   ** Check values should be zero. Most Recent values listed first.
   **   ~~~   ** Demand-to-Supply interface energy check value iteration history trace: 1136.050650,1136.050650,1136.050650,1136.050650,1136.050650,1136.050650,1136.050650,1136.050650,1136.050650,1136.050650,
   **   ~~~   ** Supply-to-demand interface deck 1 energy check value iteration history trace: 2033.618440,2033.618440,2033.618440,2033.618440,2033.618440,2033.618440,2033.618440,2033.618440,2033.618440,2033.618439,
   ** Warning ** Temperature out of range [-100. to 200.] (PsyPsatFnTemp)
   **   ~~~   **  Routine=PsyTwbFnTdbWPb, Environment=ANNUAL, at Simulation time=03/26 20:30 - 20:45
   **   ~~~   **  Input Temperature=-107.86
   ** Warning ** SimHVAC: Maximum iterations (20) exceeded for all HVAC loops, at ANNUAL, 03/28 08:00 - 08:15
   **   ~~~   ** The solution for one or more of the Air Loop HVAC systems did not appear to converge
   **   ~~~   ** Air System Named = CENTRAL SYSTEM did not converge for mass flow rate
   **   ~~~   ** Check values should be zero. Most Recent values listed first.
   **   ~~~   ** Demand-to-Supply interface mass flow rate check value iteration history trace: 7.652221E-002,7.652221E-002,7.652221E-002,7.652221E-002,7.652221E-002,7.652221E-002,7.652221E-002,7.652221E-002,7.652221E-002,7.652221E-002,
   **   ~~~   ** Supply-to-demand interface deck 1 mass flow rate check value iteration history trace: 7.652221E-002,7.652221E-002,7.652221E-002,7.652221E-002,7.652221E-002,7.652221E-002,7.652221E-002,7.652221E-002,7.652221E-002,7.652221E-002,
   **   ~~~   ** Air System Named = CENTRAL SYSTEM did not converge for energy
   **   ~~~   ** Check values should be zero. Most Recent values listed first.
   **   ~~~   ** Demand-to-Supply interface energy check value iteration history trace: 1516.414213,1516.414213,1516.414213,1516.414213,1516.414213,1516.414213,1516.414213,1516.414213,1516.414213,1516.414213,
   **   ~~~   ** Supply-to-demand interface deck 1 energy check value iteration history trace: 2489.445594,2489.445594,2489.445594,2489.445594,2489.445594,2489.445594,2489.445594,2489.445594,2489.445593,2489.445593,
   ** Warning ** SimHVAC: Maximum iterations (20) exceeded for all HVAC loops, at ANNUAL, 04/03 07:08 - 07:15
   **   ~~~   ** The solution for one or more of the Air Loop HVAC systems did not appear to converge
   **   ~~~   ** Air System Named = CENTRAL SYSTEM did not converge for mass flow rate
   **   ~~~   ** Check values should be zero. Most Recent values listed first.
   **   ~~~   ** Demand-to-Supply interface mass flow rate check value iteration history trace: 6.099859E-002,6.099859E-002,6.099859E-002,6.099859E-002,6.099859E-002,6.099859E-002,6.099859E-002,6.099859E-002,6.099859E-002,6.099859E-002,
   **   ~~~   ** Supply-to-demand interface deck 1 mass flow rate check value iteration history trace: 6.099859E-002,6.099859E-002,6.099859E-002,6.099859E-002,6.099859E-002,6.099859E-002,6.099859E-002,6.099859E-002,6.099859E-002,6.099859E-002,
   **   ~~~   ** Air System Named = CENTRAL SYSTEM did not converge for energy
   **   ~~~   ** Check values should be zero. Most Recent values listed first.
   **   ~~~   ** Demand-to-Supply interface energy check value iteration history trace: 1197.793347,1197.793347,1197.793347,1197.793347,1197.793347,1197.793347,1197.793347,1197.793347,1197.793347,1197.793347,
   **   ~~~   ** Supply-to-demand interface deck 1 energy check value iteration history trace: 2166.656049,2166.656049,2166.656048,2166.656048,2166.656048,2166.656048,2166.656048,2166.656048,2166.656048,2166.656048,
   ** Warning ** SimHVAC: Maximum iterations (20) exceeded for all HVAC loops, at ANNUAL, 04/18 07:34 - 07:38
   **   ~~~   ** The solution for one or more of the Air Loop HVAC systems did not appear to converge
   **   ~~~   ** Air System Named = CENTRAL SYSTEM did not converge for mass flow rate
   **   ~~~   ** Check values should be zero. Most Recent values listed first.
   **   ~~~   ** Demand-to-Supply interface mass flow rate check value iteration history trace: 8.609694E-002,8.609694E-002,8.609694E-002,8.609694E-002,8.609694E-002,8.609694E-002,8.609694E-002,8.609694E-002,8.609694E-002,8.609694E-002,
   **   ~~~   ** Supply-to-demand interface deck 1 mass flow rate check value iteration history trace: 8.609694E-002,8.609694E-002,8.609694E-002,8.609694E-002,8.609694E-002,8.609694E-002,8.609694E-002,8.609694E-002,8.609694E-002,8.609694E-002,
   **   ~~~   ** Air System Named = CENTRAL SYSTEM did not converge for energy
   **   ~~~   ** Check values should be zero. Most Recent values listed first.
   **   ~~~   ** Demand-to-Supply interface energy check value iteration history trace: 2029.240807,2029.240807,2029.240807,2029.240808,2029.240808,2029.240808,2029.240808,2029.240808,2029.240809,2029.240809,
   **   ~~~   ** Supply-to-demand interface deck 1 energy check value iteration history trace: 690.106995,690.106995,690.106995,690.106995,690.106995,690.106995,690.106995,690.106995,690.106995,690.106995,
   ** Warning ** SimHVAC: Maximum iterations (20) exceeded for all HVAC loops, at ANNUAL, 04/18 09:25 - 09:30
   **   ~~~   ** The solution for one or more of the Air Loop HVAC systems did not appear to converge
   **   ~~~   ** Air System Named = CENTRAL SYSTEM did not converge for mass flow rate
   **   ~~~   ** Check values should be zero. Most Recent values listed first.
   **   ~~~   ** Demand-to-Supply interface mass flow rate check value iteration history trace: 1.509339E-002,1.509339E-002,1.509339E-002,1.509339E-002,1.509339E-002,1.509339E-002,1.509339E-002,1.509339E-002,1.509339E-002,1.509339E-002,
   **   ~~~   ** Supply-to-demand interface deck 1 mass flow rate check value iteration history trace: 1.509339E-002,1.509339E-002,1.509339E-002,1.509339E-002,1.509339E-002,1.509339E-002,1.509339E-002,1.509339E-002,1.509339E-002,1.509339E-002,
   **   ~~~   ** Air System Named = CENTRAL SYSTEM did not converge for energy
   **   ~~~   ** Check values should be zero. Most Recent values listed first.
   **   ~~~   ** Demand-to-Supply interface energy check value iteration history trace: 354.066146,354.066146,354.066146,354.066146,354.066146,354.066146,354.066146,354.066146,354.066146,354.066146,
   **   ~~~   ** Supply-to-demand interface deck 1 energy check value iteration history trace: 125.539606,125.539606,125.539606,125.539606,125.539606,125.539606,125.539606,125.539606,125.539606,125.539606,
   ** Warning ** SimHVAC: Maximum iterations (20) exceeded for all HVAC loops, at ANNUAL, 04/29 12:25 - 12:27
   **   ~~~   ** The solution for one or more of the Air Loop HVAC systems did not appear to converge
   **   ~~~   ** Air System Named = CENTRAL SYSTEM did not converge for mass flow rate
   **   ~~~   ** Check values should be zero. Most Recent values listed first.
   **   ~~~   ** Demand-to-Supply interface mass flow rate check value iteration history trace: 0.292058,0.292058,0.292058,0.292058,0.292058,0.292058,0.292058,0.292058,0.292058,0.292058,
   **   ~~~   ** Supply-to-demand interface deck 1 mass flow rate check value iteration history trace: 0.292058,0.292058,0.292058,0.292058,0.292058,0.292058,0.292058,0.292058,0.292058,0.292058,
   **   ~~~   ** Air System Named = CENTRAL SYSTEM did not converge for energy
   **   ~~~   ** Check values should be zero. Most Recent values listed first.
   **   ~~~   ** Demand-to-Supply interface energy check value iteration history trace: 7020.140422,7020.140422,7020.140423,7020.140423,7020.140424,7020.140424,7020.140424,7020.140425,7020.140425,7020.140425,
   **   ~~~   ** Supply-to-demand interface deck 1 energy check value iteration history trace: 2080.492480,2080.492480,2080.492481,2080.492481,2080.492481,2080.492481,2080.492481,2080.492481,2080.492481,2080.492481,
   ************* Simulation Error Summary *************
   ** Warning ** The following Report Variables were requested but not generated -- check.rdd file
   **   ~~~   ** Either the IDF did not contain these elements, the variable name is misspelled,
   **   ~~~   ** or the requested variable is an advanced output which requires Output : Diagnostics, DisplayAdvancedReportVariables;
   ************* Key=*, VarName=BASEBOARD TOTAL HEATING ENERGY, Frequency=
   ************* Key=*, VarName=WATER HEATER NATURALGAS ENERGY, Frequency=
   ************* Key=*, VarName=COOLING COIL TOTAL HEATING ENERGY, Frequency=
   ************* There are 34 unused schedules in input.
   ************* There are 388 unused week schedules in input.
   ************* There are 396 unused day schedules in input.
   ************* Use Output:Diagnostics,DisplayUnusedSchedules; to see them.
   *************
   ************* ===== Recurring Error Summary =====
   ************* The following recurring error messages occurred.
   *************
   *************  ** Warning ** "TOTAL HOT WATER LOAD" - Target water temperature should be less than or equal to the hot water temperature error continues...
   *************  **   ~~~   **   This error occurred 168575 total times;
   *************  **   ~~~   **   during Warmup 0 times;
   *************  **   ~~~   **   during Sizing 0 times.
   *************  **   ~~~   **   Max=9.433709  Min=1.866647E-004
   *************
   *************  ** Warning ** Temperature out of range [-100. to 200.] (PsyPsatFnTemp)
   *************  **   ~~~   **   This error occurred 2 total times;
   *************  **   ~~~   **   during Warmup 0 times;
   *************  **   ~~~   **   during Sizing 0 times.
   *************  **   ~~~   **   Max=-107.680679 C  Min=-107.863625 C
   *************
   *************  ** Warning ** SimHVAC: Exceeding Maximum iterations for all HVAC loops, during ANNUAL continues
   *************  **   ~~~   **   This error occurred 5 total times;
   *************  **   ~~~   **   during Warmup 0 times;
   *************  **   ~~~   **   during Sizing 0 times.
   *************
   *************
   ************* ===== Final Error Summary =====
   ************* The following error categories occurred.  Consider correcting or noting.
   ************* Nominally Unused Constructions
   ************* ..The nominally unused constructions warning is provided to alert you to potential conditions that can cause
   ************* ..extra time during simulation. Each construction is calculated by the algorithm indicated in the HeatBalanceAlgorithm
   ************* ..object. You may remove the constructions indicated (when you use the DisplayExtraWarnings option).
   *************
   ************* EnergyPlus Warmup Error Summary. During Warmup: 1 Warning; 0 Severe Errors.
   ************* EnergyPlus Sizing Error Summary. During Sizing: 4 Warning; 0 Severe Errors.
   ************* EnergyPlus Completed Successfully-- 168614 Warning; 0 Severe Errors; Elapsed Time=00hr 01min 55.19sec
