Program Version,EnergyPlus, Version 22.2.0-c249759bad, YMD=2023.09.01 14:43,
   ************* Beginning Zone Sizing Calculations
   ** Warning ** ProcessScheduleInput: Schedule:Constant="ALWAYS ON DISCRETE", Schedule Type Limits Name="ONOFF" not found -- will not be validated
   ** Warning ** Foundation:Kiva="KIVA FOUNDATION", no Interior Horizontal Insulation Material Name defined
   **   ~~~   ** Interior Horizontal Insulation Depth will not be used.
   ** Warning ** CheckUsedConstructions: There are 15 nominally unused constructions in input.
   **   ~~~   ** Each Unused construction is shown.
   ************* Construction=INTERIOR FLOOR
   ************* Construction=INTERIOR WINDOW
   ************* Construction=EXTERIOR DOOR
   ************* Construction=INTERIOR DOOR
   ************* Construction=GABLE CONSTRUCTION
   ************* Construction=CRAWL_FLOOR
   ************* Construction=INSULATED PIPE
   ************* Construction=PLAIN PIPE
   ************* Construction=TDD PIPE
   ************* Construction=TDD DOME
   ************* Construction=TDD DIFFUSER
   ************* Construction=CRAWL WALL
   ************* Construction=CEILING-FLOOR-LAYER
   ************* Construction=SLAB CONSTRUCTION W FULL R10 INSULATION
   ************* Construction=SLAB CONSTRUCTION W FULL R5 INSULATION
   ** Warning ** GetDXCoils: Coil:Heating:DX:SingleSpeed="DX_HEATING_COIL" curve values
   **   ~~~   ** ... Defrost Energy Input Ratio Function of Temperature Curve Name = DEFROSTEIR output is not equal to 1.0 (+ or - 10%) at rated conditions.
   **   ~~~   ** ... Curve output at rated conditions = 0.152
   ************* Beginning System Sizing Calculations
   ************* Beginning Plant Sizing Calculations
   ** Warning ** SizeDXCoil Coil:Cooling:DX:SingleSpeed DX_COOLING_COIL
   **   ~~~   ** ...Gross Rated Total Cooling Capacity [W] will be limited by the maximum rated volume flow per rated total capacity ratio.
   **   ~~~   ** ...DX coil volume flow rate ( m3/s ) = 0.472918
   **   ~~~   ** ...Requested capacity ( W ) = 5937.709
   **   ~~~   ** ...Requested flow/capacity ratio ( m3/s/W ) = 7.964E-005
   **   ~~~   ** ...Maximum flow/capacity ratio ( m3/s/W ) = 6.041E-005
   **   ~~~   ** ...Adjusted capacity ( W ) = 7828.486
   ** Warning ** Coil:WaterHeating:AirToWaterHeatPump:Wrapped "HEAT PUMP WATER HEATER EVAPORATOR": Rated air volume flow rate per watt of rated total water heating capacity is out of range
   **   ~~~   ** Min Rated Vol Flow Per Watt=[4.027E-005], Rated Vol Flow Per Watt=[1.386E-004], Max Rated Vol Flow Per Watt=[8.056E-005]. See Input-Output Reference Manual for valid range.
   ** Warning ** Water heater = WATER HEATER TANK:  Recovery Efficiency and Energy Factor could not be calculated during the test for standard ratings
   **   ~~~   ** Setpoint was never recovered and/or heater never turned on
   ** Warning ** Check input. Pump nominal power or motor efficiency is set to 0, for pump=MAINS PRESSURE
   ** Warning ** Output:Meter: invalid Key Name="ELECTRIC_RANGE:INTERIOREQUIPMENT:ELECTRICITY" - not found.
   ** Warning ** Output:Meter: invalid Key Name="ELECTRIC_DRYER:INTERIOREQUIPMENT:ELECTRICITY" - not found.
   ** Warning ** Output:Meter: invalid Key Name="HEATRECOVERY:ELECTRICITY" - not found.
   ** Warning ** Output:Meter: invalid Key Name="HEATING:NATURALGAS" - not found.
   ** Warning ** Output:Meter: invalid Key Name="WATERSYSTEMS:NATURALGAS" - not found.
   ** Warning ** Output:Meter: invalid Key Name="PROPANE:FACILITY" - not found.
   ** Warning ** Output:Meter: invalid Key Name="HEATING:PROPANE" - not found.
   ************* Testing Individual Branch Integrity
   ************* All Branches passed integrity testing
   ************* Testing Individual Supply Air Path Integrity
   ************* All Supply Air Paths passed integrity testing
   ************* Testing Individual Return Air Path Integrity
   ************* All Return Air Paths passed integrity testing
   ************* No node connection errors were found.
   ************* Beginning Simulation
   ** Warning ** AirflowNetwork::Solver::validate_distribution: Heat pump water heater is simulated along with an AirflowNetwork but is not included in the AirflowNetwork.
   ** Warning ** CalcEquipmentFlowRates: "TOTAL HOT WATER LOAD" - Target water temperature is greater than the hot water temperature by (1.68 C)
   **   ~~~   **  Environment=EXTREME_WINTER, at Simulation time=01/06 06:00 - 06:15
   **   ~~~   ** ...target water temperature     = 53.33 C
   **   ~~~   ** ...hot water temperature        = 51.66 C
   **   ~~~   ** ...Target water temperature should be less than or equal to the hot water temperature. Verify temperature setpoints and schedules.
   ** Warning ** SimHVAC: Maximum iterations (20) exceeded for all HVAC loops, at EXTREME_WINTER, 01/12 11:48 - 11:51
   **   ~~~   ** The solution for one or more of the Air Loop HVAC systems did not appear to converge
   **   ~~~   ** Air System Named = CENTRAL SYSTEM did not converge for mass flow rate
   **   ~~~   ** Check values should be zero. Most Recent values listed first.
   **   ~~~   ** Demand-to-Supply interface mass flow rate check value iteration history trace: 6.412676E-002,6.412676E-002,6.412676E-002,6.412676E-002,6.412676E-002,6.412676E-002,6.412676E-002,6.412676E-002,6.412676E-002,6.412676E-002,
   **   ~~~   ** Supply-to-demand interface deck 1 mass flow rate check value iteration history trace: 6.412676E-002,6.412676E-002,6.412676E-002,6.412676E-002,6.412676E-002,6.412676E-002,6.412676E-002,6.412676E-002,6.412676E-002,6.412676E-002,
   **   ~~~   ** Air System Named = CENTRAL SYSTEM did not converge for energy
   **   ~~~   ** Check values should be zero. Most Recent values listed first.
   **   ~~~   ** Demand-to-Supply interface energy check value iteration history trace: 1264.778635,1264.778635,1264.778635,1264.778635,1264.778635,1264.778635,1264.778635,1264.778634,1264.778634,1264.778634,
   **   ~~~   ** Supply-to-demand interface deck 1 energy check value iteration history trace: 2165.737836,2165.737836,2165.737836,2165.737836,2165.737836,2165.737836,2165.737836,2165.737835,2165.737835,2165.737835,
   ** Warning ** SimHVAC: Maximum iterations (20) exceeded for all HVAC loops, at ANNUAL, 01/21 11:30 - 11:45
   **   ~~~   ** The solution for one or more of the Air Loop HVAC systems did not appear to converge
   **   ~~~   ** Air System Named = CENTRAL SYSTEM did not converge for mass flow rate
   **   ~~~   ** Check values should be zero. Most Recent values listed first.
   **   ~~~   ** Demand-to-Supply interface mass flow rate check value iteration history trace: 6.338135E-002,6.338135E-002,6.338135E-002,6.338135E-002,6.338135E-002,6.338135E-002,6.338135E-002,6.338135E-002,6.338135E-002,6.338135E-002,
   **   ~~~   ** Supply-to-demand interface deck 1 mass flow rate check value iteration history trace: 6.338135E-002,6.338135E-002,6.338135E-002,6.338135E-002,6.338135E-002,6.338135E-002,6.338135E-002,6.338135E-002,6.338135E-002,6.338135E-002,
   **   ~~~   ** Air System Named = CENTRAL SYSTEM did not converge for energy
   **   ~~~   ** Check values should be zero. Most Recent values listed first.
   **   ~~~   ** Demand-to-Supply interface energy check value iteration history trace: 1256.052441,1256.052441,1256.052441,1256.052441,1256.052441,1256.052441,1256.052441,1256.052441,1256.052441,1256.052441,
   **   ~~~   ** Supply-to-demand interface deck 1 energy check value iteration history trace: 2099.022724,2099.022724,2099.022724,2099.022724,2099.022724,2099.022724,2099.022724,2099.022724,2099.022724,2099.022724,
   ** Warning ** Temperature out of range [-100. to 200.] (PsyPsatFnTemp)
   **   ~~~   **  Routine=PsyTwbFnTdbWPb, Environment=ANNUAL, at Simulation time=01/24 02:00 - 02:15
   **   ~~~   **  Input Temperature=-469.16
   ** Warning ** SimHVAC: Maximum iterations (20) exceeded for all HVAC loops, at ANNUAL, 02/07 20:08 - 20:15
   **   ~~~   ** The solution for one or more of the Air Loop HVAC systems did not appear to converge
   **   ~~~   ** Air System Named = CENTRAL SYSTEM did not converge for mass flow rate
   **   ~~~   ** Check values should be zero. Most Recent values listed first.
   **   ~~~   ** Demand-to-Supply interface mass flow rate check value iteration history trace: 8.190478E-002,8.190478E-002,8.190478E-002,8.190478E-002,8.190478E-002,8.190478E-002,8.190478E-002,8.190478E-002,8.190478E-002,8.190478E-002,
   **   ~~~   ** Supply-to-demand interface deck 1 mass flow rate check value iteration history trace: 8.190478E-002,8.190478E-002,8.190478E-002,8.190478E-002,8.190478E-002,8.190478E-002,8.190478E-002,8.190478E-002,8.190478E-002,8.190478E-002,
   **   ~~~   ** Air System Named = CENTRAL SYSTEM did not converge for energy
   **   ~~~   ** Check values should be zero. Most Recent values listed first.
   **   ~~~   ** Demand-to-Supply interface energy check value iteration history trace: 1612.168186,1612.168186,1612.168186,1612.168186,1612.168186,1612.168186,1612.168186,1612.168186,1612.168185,1612.168185,
   **   ~~~   ** Supply-to-demand interface deck 1 energy check value iteration history trace: 2662.730497,2662.730497,2662.730496,2662.730496,2662.730496,2662.730496,2662.730496,2662.730496,2662.730496,2662.730496,
   ** Warning ** SimHVAC: Maximum iterations (20) exceeded for all HVAC loops, at ANNUAL, 02/18 11:00 - 11:02
   **   ~~~   ** The solution for one or more of the Air Loop HVAC systems did not appear to converge
   **   ~~~   ** Air System Named = CENTRAL SYSTEM did not converge for mass flow rate
   **   ~~~   ** Check values should be zero. Most Recent values listed first.
   **   ~~~   ** Demand-to-Supply interface mass flow rate check value iteration history trace: 6.738100E-002,6.738100E-002,6.738100E-002,6.738100E-002,6.738100E-002,6.738100E-002,6.738100E-002,6.738100E-002,6.738100E-002,6.738100E-002,
   **   ~~~   ** Supply-to-demand interface deck 1 mass flow rate check value iteration history trace: 6.738100E-002,6.738100E-002,6.738100E-002,6.738100E-002,6.738100E-002,6.738100E-002,6.738100E-002,6.738100E-002,6.738100E-002,6.738100E-002,
   **   ~~~   ** Air System Named = CENTRAL SYSTEM did not converge for energy
   **   ~~~   ** Check values should be zero. Most Recent values listed first.
   **   ~~~   ** Demand-to-Supply interface energy check value iteration history trace: 1332.477301,1332.477301,1332.477301,1332.477301,1332.477300,1332.477300,1332.477300,1332.477300,1332.477300,1332.477300,
   **   ~~~   ** Supply-to-demand interface deck 1 energy check value iteration history trace: 2248.510462,2248.510462,2248.510462,2248.510462,2248.510462,2248.510462,2248.510462,2248.510461,2248.510461,2248.510461,
   ** Warning ** SimHVAC: Maximum iterations (20) exceeded for all HVAC loops, at ANNUAL, 02/19 11:32 - 11:34
   **   ~~~   ** The solution for one or more of the Air Loop HVAC systems did not appear to converge
   **   ~~~   ** Air System Named = CENTRAL SYSTEM did not converge for mass flow rate
   **   ~~~   ** Check values should be zero. Most Recent values listed first.
   **   ~~~   ** Demand-to-Supply interface mass flow rate check value iteration history trace: 5.289463E-002,5.289463E-002,5.289463E-002,5.289463E-002,5.289463E-002,5.289463E-002,5.289463E-002,5.289463E-002,5.289463E-002,5.289463E-002,
   **   ~~~   ** Supply-to-demand interface deck 1 mass flow rate check value iteration history trace: 5.289463E-002,5.289463E-002,5.289463E-002,5.289463E-002,5.289463E-002,5.289463E-002,5.289463E-002,5.289463E-002,5.289463E-002,5.289463E-002,
   **   ~~~   ** Air System Named = CENTRAL SYSTEM did not converge for energy
   **   ~~~   ** Check values should be zero. Most Recent values listed first.
   **   ~~~   ** Demand-to-Supply interface energy check value iteration history trace: 1046.259947,1046.259947,1046.259947,1046.259947,1046.259947,1046.259947,1046.259947,1046.259947,1046.259947,1046.259947,
   **   ~~~   ** Supply-to-demand interface deck 1 energy check value iteration history trace: 2013.368597,2013.368597,2013.368597,2013.368597,2013.368597,2013.368597,2013.368597,2013.368597,2013.368597,2013.368597,
   ** Warning ** SimHVAC: Maximum iterations (20) exceeded for all HVAC loops, at ANNUAL, 02/25 18:50 - 18:55
   **   ~~~   ** The solution for one or more of the Air Loop HVAC systems did not appear to converge
   **   ~~~   ** Air System Named = CENTRAL SYSTEM did not converge for mass flow rate
   **   ~~~   ** Check values should be zero. Most Recent values listed first.
   **   ~~~   ** Demand-to-Supply interface mass flow rate check value iteration history trace: 9.118331E-002,9.118331E-002,9.118331E-002,9.118331E-002,9.118331E-002,9.118331E-002,9.118331E-002,9.118331E-002,9.118331E-002,9.118331E-002,
   **   ~~~   ** Supply-to-demand interface deck 1 mass flow rate check value iteration history trace: 9.118331E-002,9.118331E-002,9.118331E-002,9.118331E-002,9.118331E-002,9.118331E-002,9.118331E-002,9.118331E-002,9.118331E-002,9.118331E-002,
   **   ~~~   ** Air System Named = CENTRAL SYSTEM did not converge for energy
   **   ~~~   ** Check values should be zero. Most Recent values listed first.
   **   ~~~   ** Demand-to-Supply interface energy check value iteration history trace: 1799.254360,1799.254360,1799.254360,1799.254360,1799.254359,1799.254359,1799.254359,1799.254359,1799.254359,1799.254359,
   **   ~~~   ** Supply-to-demand interface deck 1 energy check value iteration history trace: 2938.943922,2938.943922,2938.943922,2938.943922,2938.943922,2938.943922,2938.943921,2938.943921,2938.943921,2938.943921,
   ** Warning ** SimHVAC: Maximum iterations (20) exceeded for all HVAC loops, at ANNUAL, 02/26 13:04 - 13:08
   **   ~~~   ** The solution for one or more of the Air Loop HVAC systems did not appear to converge
   **   ~~~   ** Air System Named = CENTRAL SYSTEM did not converge for mass flow rate
   **   ~~~   ** Check values should be zero. Most Recent values listed first.
   **   ~~~   ** Demand-to-Supply interface mass flow rate check value iteration history trace: 2.617309E-002,2.617309E-002,2.617309E-002,2.617309E-002,2.617309E-002,2.617309E-002,2.617309E-002,2.617309E-002,2.617309E-002,2.617309E-002,
   **   ~~~   ** Supply-to-demand interface deck 1 mass flow rate check value iteration history trace: 2.617309E-002,2.617309E-002,2.617309E-002,2.617309E-002,2.617309E-002,2.617309E-002,2.617309E-002,2.617309E-002,2.617309E-002,2.617309E-002,
   **   ~~~   ** Air System Named = CENTRAL SYSTEM did not converge for energy
   **   ~~~   ** Check values should be zero. Most Recent values listed first.
   **   ~~~   ** Demand-to-Supply interface energy check value iteration history trace: 516.045028,516.045028,516.045028,516.045028,516.045028,516.045028,516.045028,516.045028,516.045028,516.045028,
   **   ~~~   ** Supply-to-demand interface deck 1 energy check value iteration history trace: 945.202255,945.202255,945.202255,945.202255,945.202255,945.202255,945.202255,945.202255,945.202255,945.202255,
   ** Warning ** SimHVAC: Maximum iterations (20) exceeded for all HVAC loops, at ANNUAL, 03/12 10:00 - 10:02
   **   ~~~   ** The solution for one or more of the Air Loop HVAC systems did not appear to converge
   **   ~~~   ** Air System Named = CENTRAL SYSTEM did not converge for mass flow rate
   **   ~~~   ** Check values should be zero. Most Recent values listed first.
   **   ~~~   ** Demand-to-Supply interface mass flow rate check value iteration history trace: 6.610685E-002,6.610685E-002,6.610685E-002,6.610685E-002,6.610685E-002,6.610685E-002,6.610685E-002,6.610685E-002,6.610685E-002,6.610685E-002,
   **   ~~~   ** Supply-to-demand interface deck 1 mass flow rate check value iteration history trace: 6.610685E-002,6.610685E-002,6.610685E-002,6.610685E-002,6.610685E-002,6.610685E-002,6.610685E-002,6.610685E-002,6.610685E-002,6.610685E-002,
   **   ~~~   ** Air System Named = CENTRAL SYSTEM did not converge for energy
   **   ~~~   ** Check values should be zero. Most Recent values listed first.
   **   ~~~   ** Demand-to-Supply interface energy check value iteration history trace: 1305.832540,1305.832540,1305.832540,1305.832540,1305.832540,1305.832540,1305.832540,1305.832540,1305.832540,1305.832540,
   **   ~~~   ** Supply-to-demand interface deck 1 energy check value iteration history trace: 2519.274116,2519.274116,2519.274116,2519.274116,2519.274116,2519.274116,2519.274116,2519.274116,2519.274116,2519.274116,
   ** Warning ** WetBulb not converged after 101 iterations(PsyTwbFnTdbWPb)
   **   ~~~   **  Routine=Unknown, Environment=ANNUAL, at Simulation time=03/20 19:00 - 19:15
   **   ~~~   **  Input Temperature = 4.85
   **   ~~~   **  Input Humidity Ratio= 2.688862E-003
   **   ~~~   **  Input Pressure = 82251.75
   **   ~~~   **  Resultant Temperature= 7.89E-002
   ** Warning ** SimHVAC: Maximum iterations (20) exceeded for all HVAC loops, at ANNUAL, 04/16 12:15 - 12:22
   **   ~~~   ** The solution for one or more of the Air Loop HVAC systems did not appear to converge
   **   ~~~   ** Air System Named = CENTRAL SYSTEM did not converge for mass flow rate
   **   ~~~   ** Check values should be zero. Most Recent values listed first.
   **   ~~~   ** Demand-to-Supply interface mass flow rate check value iteration history trace: 4.703671E-002,4.703671E-002,4.703671E-002,4.703671E-002,4.703671E-002,4.703671E-002,4.703671E-002,4.703671E-002,4.703671E-002,4.703671E-002,
   **   ~~~   ** Supply-to-demand interface deck 1 mass flow rate check value iteration history trace: 4.703671E-002,4.703671E-002,4.703671E-002,4.703671E-002,4.703671E-002,4.703671E-002,4.703671E-002,4.703671E-002,4.703671E-002,4.703671E-002,
   **   ~~~   ** Air System Named = CENTRAL SYSTEM did not converge for energy
   **   ~~~   ** Check values should be zero. Most Recent values listed first.
   **   ~~~   ** Demand-to-Supply interface energy check value iteration history trace: 932.089951,932.089951,932.089951,932.089951,932.089951,932.089951,932.089951,932.089951,932.089950,932.089950,
   **   ~~~   ** Supply-to-demand interface deck 1 energy check value iteration history trace: 1734.742893,1734.742893,1734.742893,1734.742893,1734.742893,1734.742893,1734.742893,1734.742893,1734.742893,1734.742893,
   ** Warning ** SimHVAC: Maximum iterations (20) exceeded for all HVAC loops, at ANNUAL, 05/06 08:54 - 08:57
   **   ~~~   ** The solution for one or more of the Air Loop HVAC systems did not appear to converge
   **   ~~~   ** Air System Named = CENTRAL SYSTEM did not converge for mass flow rate
   **   ~~~   ** Check values should be zero. Most Recent values listed first.
   **   ~~~   ** Demand-to-Supply interface mass flow rate check value iteration history trace: 6.471207E-002,6.471207E-002,6.471207E-002,6.471207E-002,6.471207E-002,6.471207E-002,6.471207E-002,6.471207E-002,6.471207E-002,6.471207E-002,
   **   ~~~   ** Supply-to-demand interface deck 1 mass flow rate check value iteration history trace: 6.471207E-002,6.471207E-002,6.471207E-002,6.471207E-002,6.471207E-002,6.471207E-002,6.471207E-002,6.471207E-002,6.471207E-002,6.471207E-002,
   **   ~~~   ** Air System Named = CENTRAL SYSTEM did not converge for energy
   **   ~~~   ** Check values should be zero. Most Recent values listed first.
   **   ~~~   ** Demand-to-Supply interface energy check value iteration history trace: 1279.655790,1279.655790,1279.655790,1279.655790,1279.655790,1279.655790,1279.655790,1279.655789,1279.655789,1279.655789,
   **   ~~~   ** Supply-to-demand interface deck 1 energy check value iteration history trace: 2521.605917,2521.605917,2521.605916,2521.605916,2521.605916,2521.605916,2521.605916,2521.605916,2521.605916,2521.605916,
   ** Warning ** SimHVAC: Maximum iterations (20) exceeded for all HVAC loops, at ANNUAL, 05/09 07:35 - 07:38
   **   ~~~   ** The solution for one or more of the Air Loop HVAC systems did not appear to converge
   **   ~~~   ** Air System Named = CENTRAL SYSTEM did not converge for mass flow rate
   **   ~~~   ** Check values should be zero. Most Recent values listed first.
   **   ~~~   ** Demand-to-Supply interface mass flow rate check value iteration history trace: 5.935786E-002,5.935786E-002,5.935786E-002,5.935786E-002,5.935786E-002,5.935786E-002,5.935786E-002,5.935786E-002,5.935786E-002,5.935786E-002,
   **   ~~~   ** Supply-to-demand interface deck 1 mass flow rate check value iteration history trace: 5.935786E-002,5.935786E-002,5.935786E-002,5.935786E-002,5.935786E-002,5.935786E-002,5.935786E-002,5.935786E-002,5.935786E-002,5.935786E-002,
   **   ~~~   ** Air System Named = CENTRAL SYSTEM did not converge for energy
   **   ~~~   ** Check values should be zero. Most Recent values listed first.
   **   ~~~   ** Demand-to-Supply interface energy check value iteration history trace: 1176.312134,1176.312134,1176.312134,1176.312134,1176.312134,1176.312134,1176.312134,1176.312134,1176.312134,1176.312134,
   **   ~~~   ** Supply-to-demand interface deck 1 energy check value iteration history trace: 2238.274823,2238.274822,2238.274822,2238.274822,2238.274822,2238.274822,2238.274822,2238.274822,2238.274822,2238.274822,
   ** Warning ** SimHVAC: Maximum iterations (20) exceeded for all HVAC loops, at ANNUAL, 05/10 07:15 - 07:30
   **   ~~~   ** The solution for one or more of the Air Loop HVAC systems did not appear to converge
   **   ~~~   ** Air System Named = CENTRAL SYSTEM did not converge for mass flow rate
   **   ~~~   ** Check values should be zero. Most Recent values listed first.
   **   ~~~   ** Demand-to-Supply interface mass flow rate check value iteration history trace: 6.190571E-002,6.190571E-002,6.190571E-002,6.190571E-002,6.190571E-002,6.190571E-002,6.190571E-002,6.190571E-002,6.190571E-002,6.190571E-002,
   **   ~~~   ** Supply-to-demand interface deck 1 mass flow rate check value iteration history trace: 6.190571E-002,6.190571E-002,6.190571E-002,6.190571E-002,6.190571E-002,6.190571E-002,6.190571E-002,6.190571E-002,6.190571E-002,6.190571E-002,
   **   ~~~   ** Air System Named = CENTRAL SYSTEM did not converge for energy
   **   ~~~   ** Check values should be zero. Most Recent values listed first.
   **   ~~~   ** Demand-to-Supply interface energy check value iteration history trace: 1226.754673,1226.754673,1226.754673,1226.754673,1226.754673,1226.754673,1226.754673,1226.754673,1226.754673,1226.754673,
   **   ~~~   ** Supply-to-demand interface deck 1 energy check value iteration history trace: 2299.549310,2299.549310,2299.549310,2299.549310,2299.549310,2299.549310,2299.549310,2299.549310,2299.549309,2299.549309,
   ** Warning ** SimHVAC: Maximum iterations (20) exceeded for all HVAC loops, at ANNUAL, 10/10 20:45 - 21:00
   **   ~~~   ** The solution for one or more of the Air Loop HVAC systems did not appear to converge
   **   ~~~   ** Air System Named = CENTRAL SYSTEM did not converge for mass flow rate
   **   ~~~   ** Check values should be zero. Most Recent values listed first.
   **   ~~~   ** Demand-to-Supply interface mass flow rate check value iteration history trace: 8.416392E-002,8.416392E-002,8.416392E-002,8.416392E-002,8.416392E-002,8.416392E-002,8.416392E-002,8.416392E-002,8.416392E-002,8.416392E-002,
   **   ~~~   ** Supply-to-demand interface deck 1 mass flow rate check value iteration history trace: 8.416392E-002,8.416392E-002,8.416392E-002,8.416392E-002,8.416392E-002,8.416392E-002,8.416392E-002,8.416392E-002,8.416392E-002,8.416392E-002,
   **   ~~~   ** Air System Named = CENTRAL SYSTEM did not converge for energy
   **   ~~~   ** Check values should be zero. Most Recent values listed first.
   **   ~~~   ** Demand-to-Supply interface energy check value iteration history trace: 2019.691224,2019.691224,2019.691224,2019.691224,2019.691224,2019.691225,2019.691225,2019.691225,2019.691225,2019.691225,
   **   ~~~   ** Supply-to-demand interface deck 1 energy check value iteration history trace: 592.990289,592.990289,592.990289,592.990289,592.990289,592.990289,592.990289,592.990289,592.990289,592.990289,
   ** Warning ** SimHVAC: Maximum iterations (20) exceeded for all HVAC loops, at ANNUAL, 10/31 08:20 - 08:22
   **   ~~~   ** The solution for one or more of the Air Loop HVAC systems did not appear to converge
   **   ~~~   ** Air System Named = CENTRAL SYSTEM did not converge for mass flow rate
   **   ~~~   ** Check values should be zero. Most Recent values listed first.
   **   ~~~   ** Demand-to-Supply interface mass flow rate check value iteration history trace: 6.072109E-002,6.072109E-002,6.072109E-002,6.072109E-002,6.072109E-002,6.072109E-002,6.072109E-002,6.072109E-002,6.072109E-002,6.072109E-002,
   **   ~~~   ** Supply-to-demand interface deck 1 mass flow rate check value iteration history trace: 6.072109E-002,6.072109E-002,6.072109E-002,6.072109E-002,6.072109E-002,6.072109E-002,6.072109E-002,6.072109E-002,6.072109E-002,6.072109E-002,
   **   ~~~   ** Air System Named = CENTRAL SYSTEM did not converge for energy
   **   ~~~   ** Check values should be zero. Most Recent values listed first.
   **   ~~~   ** Demand-to-Supply interface energy check value iteration history trace: 1203.289896,1203.289896,1203.289896,1203.289896,1203.289896,1203.289896,1203.289896,1203.289896,1203.289896,1203.289896,
   **   ~~~   ** Supply-to-demand interface deck 1 energy check value iteration history trace: 2309.877856,2309.877856,2309.877856,2309.877856,2309.877856,2309.877856,2309.877856,2309.877856,2309.877856,2309.877856,
   ************* Simulation Error Summary *************
   ** Warning ** The following Report Variables were requested but not generated -- check.rdd file
   **   ~~~   ** Either the IDF did not contain these elements, the variable name is misspelled,
   **   ~~~   ** or the requested variable is an advanced output which requires Output : Diagnostics, DisplayAdvancedReportVariables;
   ************* Key=*, VarName=BASEBOARD TOTAL HEATING ENERGY, Frequency=
   ************* Key=*, VarName=WATER HEATER NATURALGAS ENERGY, Frequency=
   ************* Key=*, VarName=COOLING COIL TOTAL HEATING ENERGY, Frequency=
   ************* There are 34 unused schedules in input.
   ************* There are 388 unused week schedules in input.
   ************* There are 396 unused day schedules in input.
   ************* Use Output:Diagnostics,DisplayUnusedSchedules; to see them.
   *************
   ************* ===== Recurring Error Summary =====
   ************* The following recurring error messages occurred.
   *************
   *************  ** Warning ** "TOTAL HOT WATER LOAD" - Target water temperature should be less than or equal to the hot water temperature error continues...
   *************  **   ~~~   **   This error occurred 138087 total times;
   *************  **   ~~~   **   during Warmup 0 times;
   *************  **   ~~~   **   during Sizing 0 times.
   *************  **   ~~~   **   Max=9.989619  Min=2.339934E-004
   *************
   *************  ** Warning ** Temperature out of range [-100. to 200.] (PsyPsatFnTemp)
   *************  **   ~~~   **   This error occurred 3 total times;
   *************  **   ~~~   **   during Warmup 0 times;
   *************  **   ~~~   **   during Sizing 0 times.
   *************  **   ~~~   **   Max=-120.63657 C  Min=-469.161362 C
   *************
   *************  ** Warning ** WetBulb not converged after max iterations(PsyTwbFnTdbWPb)
   *************  **   ~~~   **   This error occurred 3 total times;
   *************  **   ~~~   **   during Warmup 0 times;
   *************  **   ~~~   **   during Sizing 0 times.
   *************
   *************  ** Warning ** SimHVAC: Exceeding Maximum iterations for all HVAC loops, during ANNUAL continues
   *************  **   ~~~   **   This error occurred 3 total times;
   *************  **   ~~~   **   during Warmup 0 times;
   *************  **   ~~~   **   during Sizing 0 times.
   *************
   *************
   ************* ===== Final Error Summary =====
   ************* The following error categories occurred.  Consider correcting or noting.
   ************* Nominally Unused Constructions
   ************* ..The nominally unused constructions warning is provided to alert you to potential conditions that can cause
   ************* ..extra time during simulation. Each construction is calculated by the algorithm indicated in the HeatBalanceAlgorithm
   ************* ..object. You may remove the constructions indicated (when you use the DisplayExtraWarnings option).
   *************
   ************* EnergyPlus Warmup Error Summary. During Warmup: 1 Warning; 0 Severe Errors.
   ************* EnergyPlus Sizing Error Summary. During Sizing: 4 Warning; 0 Severe Errors.
   ************* EnergyPlus Completed Successfully-- 138128 Warning; 0 Severe Errors; Elapsed Time=00hr 06min 30.50sec
