Program Version,EnergyPlus, Version 22.2.0-c249759bad, YMD=2023.09.01 15:08,
   ************* Beginning Zone Sizing Calculations
   ** Warning ** ProcessScheduleInput: Schedule:Constant="ALWAYS ON DISCRETE", Schedule Type Limits Name="ONOFF" not found -- will not be validated
   ** Warning ** Foundation:Kiva="KIVA FOUNDATION", no Interior Horizontal Insulation Material Name defined
   **   ~~~   ** Interior Horizontal Insulation Depth will not be used.
   ** Warning ** CheckUsedConstructions: There are 15 nominally unused constructions in input.
   **   ~~~   ** Each Unused construction is shown.
   ************* Construction=INTERIOR FLOOR
   ************* Construction=INTERIOR WINDOW
   ************* Construction=EXTERIOR DOOR
   ************* Construction=INTERIOR DOOR
   ************* Construction=GABLE CONSTRUCTION
   ************* Construction=CRAWL_FLOOR
   ************* Construction=INSULATED PIPE
   ************* Construction=PLAIN PIPE
   ************* Construction=TDD PIPE
   ************* Construction=TDD DOME
   ************* Construction=TDD DIFFUSER
   ************* Construction=CRAWL WALL
   ************* Construction=CEILING-FLOOR-LAYER
   ************* Construction=SLAB CONSTRUCTION W FULL R10 INSULATION
   ************* Construction=SLAB CONSTRUCTION W FULL R5 INSULATION
   ** Warning ** GetDXCoils: Coil:Heating:DX:SingleSpeed="DX_HEATING_COIL" curve values
   **   ~~~   ** ... Defrost Energy Input Ratio Function of Temperature Curve Name = DEFROSTEIR output is not equal to 1.0 (+ or - 10%) at rated conditions.
   **   ~~~   ** ... Curve output at rated conditions = 0.152
   ************* Beginning System Sizing Calculations
   ************* Beginning Plant Sizing Calculations
   ** Warning ** SizeDXCoil Coil:Cooling:DX:SingleSpeed DX_COOLING_COIL
   **   ~~~   ** ...Gross Rated Total Cooling Capacity [W] will be limited by the maximum rated volume flow per rated total capacity ratio.
   **   ~~~   ** ...DX coil volume flow rate ( m3/s ) = 0.541350
   **   ~~~   ** ...Requested capacity ( W ) = 7416.867
   **   ~~~   ** ...Requested flow/capacity ratio ( m3/s/W ) = 7.298E-005
   **   ~~~   ** ...Maximum flow/capacity ratio ( m3/s/W ) = 6.041E-005
   **   ~~~   ** ...Adjusted capacity ( W ) = 8961.267
   ** Warning ** Coil:WaterHeating:AirToWaterHeatPump:Wrapped "HEAT PUMP WATER HEATER EVAPORATOR": Rated air volume flow rate per watt of rated total water heating capacity is out of range
   **   ~~~   ** Min Rated Vol Flow Per Watt=[4.027E-005], Rated Vol Flow Per Watt=[1.386E-004], Max Rated Vol Flow Per Watt=[8.056E-005]. See Input-Output Reference Manual for valid range.
   ** Warning ** Water heater = WATER HEATER TANK:  Recovery Efficiency and Energy Factor could not be calculated during the test for standard ratings
   **   ~~~   ** Setpoint was never recovered and/or heater never turned on
   ** Warning ** Check input. Pump nominal power or motor efficiency is set to 0, for pump=MAINS PRESSURE
   ** Warning ** Output:Meter: invalid Key Name="ELECTRIC_RANGE:INTERIOREQUIPMENT:ELECTRICITY" - not found.
   ** Warning ** Output:Meter: invalid Key Name="ELECTRIC_DRYER:INTERIOREQUIPMENT:ELECTRICITY" - not found.
   ** Warning ** Output:Meter: invalid Key Name="HEATRECOVERY:ELECTRICITY" - not found.
   ** Warning ** Output:Meter: invalid Key Name="HEATING:NATURALGAS" - not found.
   ** Warning ** Output:Meter: invalid Key Name="WATERSYSTEMS:NATURALGAS" - not found.
   ** Warning ** Output:Meter: invalid Key Name="PROPANE:FACILITY" - not found.
   ** Warning ** Output:Meter: invalid Key Name="HEATING:PROPANE" - not found.
   ************* Testing Individual Branch Integrity
   ************* All Branches passed integrity testing
   ************* Testing Individual Supply Air Path Integrity
   ************* All Supply Air Paths passed integrity testing
   ************* Testing Individual Return Air Path Integrity
   ************* All Return Air Paths passed integrity testing
   ************* No node connection errors were found.
   ************* Beginning Simulation
   ** Warning ** AirflowNetwork::Solver::validate_distribution: Heat pump water heater is simulated along with an AirflowNetwork but is not included in the AirflowNetwork.
   ** Warning ** CalcEquipmentFlowRates: "TOTAL HOT WATER LOAD" - Target water temperature is greater than the hot water temperature by (1.67 C)
   **   ~~~   **  Environment=EXTREME_WINTER, at Simulation time=01/13 06:00 - 06:15
   **   ~~~   ** ...target water temperature     = 53.33 C
   **   ~~~   ** ...hot water temperature        = 51.67 C
   **   ~~~   ** ...Target water temperature should be less than or equal to the hot water temperature. Verify temperature setpoints and schedules.
   ** Warning ** SimHVAC: Maximum iterations (20) exceeded for all HVAC loops, at ANNUAL, 02/19 08:00 - 08:02
   **   ~~~   ** The solution for one or more of the Air Loop HVAC systems did not appear to converge
   **   ~~~   ** Air System Named = CENTRAL SYSTEM did not converge for mass flow rate
   **   ~~~   ** Check values should be zero. Most Recent values listed first.
   **   ~~~   ** Demand-to-Supply interface mass flow rate check value iteration history trace: 8.949102E-002,8.949102E-002,8.949102E-002,8.949102E-002,8.949102E-002,8.949102E-002,8.949102E-002,8.949102E-002,8.949102E-002,8.949102E-002,
   **   ~~~   ** Supply-to-demand interface deck 1 mass flow rate check value iteration history trace: 8.949102E-002,8.949102E-002,8.949102E-002,8.949102E-002,8.949102E-002,8.949102E-002,8.949102E-002,8.949102E-002,8.949102E-002,8.949102E-002,
   **   ~~~   ** Air System Named = CENTRAL SYSTEM did not converge for energy
   **   ~~~   ** Check values should be zero. Most Recent values listed first.
   **   ~~~   ** Demand-to-Supply interface energy check value iteration history trace: 1773.871539,1773.871539,1773.871539,1773.871539,1773.871539,1773.871539,1773.871539,1773.871539,1773.871539,1773.871539,
   **   ~~~   ** Supply-to-demand interface deck 1 energy check value iteration history trace: 2861.197715,2861.197715,2861.197714,2861.197714,2861.197714,2861.197714,2861.197714,2861.197714,2861.197714,2861.197714,
   ** Warning ** SimHVAC: Maximum iterations (20) exceeded for all HVAC loops, at ANNUAL, 03/13 07:45 - 08:00
   **   ~~~   ** The solution for one or more of the Air Loop HVAC systems did not appear to converge
   **   ~~~   ** Air System Named = CENTRAL SYSTEM did not converge for mass flow rate
   **   ~~~   ** Check values should be zero. Most Recent values listed first.
   **   ~~~   ** Demand-to-Supply interface mass flow rate check value iteration history trace: 6.662109E-002,6.662109E-002,6.662109E-002,6.662109E-002,6.662109E-002,6.662109E-002,6.662109E-002,6.662109E-002,6.662109E-002,6.662109E-002,
   **   ~~~   ** Supply-to-demand interface deck 1 mass flow rate check value iteration history trace: 6.662109E-002,6.662109E-002,6.662109E-002,6.662109E-002,6.662109E-002,6.662109E-002,6.662109E-002,6.662109E-002,6.662109E-002,6.662109E-002,
   **   ~~~   ** Air System Named = CENTRAL SYSTEM did not converge for energy
   **   ~~~   ** Check values should be zero. Most Recent values listed first.
   **   ~~~   ** Demand-to-Supply interface energy check value iteration history trace: 1319.105377,1319.105377,1319.105377,1319.105377,1319.105377,1319.105377,1319.105377,1319.105377,1319.105377,1319.105377,
   **   ~~~   ** Supply-to-demand interface deck 1 energy check value iteration history trace: 2352.531851,2352.531851,2352.531851,2352.531851,2352.531851,2352.531850,2352.531850,2352.531850,2352.531850,2352.531850,
   ** Warning ** SimHVAC: Maximum iterations (20) exceeded for all HVAC loops, at ANNUAL, 04/15 08:32 - 08:35
   **   ~~~   ** The solution for one or more of the Air Loop HVAC systems did not appear to converge
   **   ~~~   ** Air System Named = CENTRAL SYSTEM did not converge for mass flow rate
   **   ~~~   ** Check values should be zero. Most Recent values listed first.
   **   ~~~   ** Demand-to-Supply interface mass flow rate check value iteration history trace: 6.269761E-002,6.269761E-002,6.269761E-002,6.269761E-002,6.269761E-002,6.269761E-002,6.269761E-002,6.269761E-002,6.269761E-002,6.269761E-002,
   **   ~~~   ** Supply-to-demand interface deck 1 mass flow rate check value iteration history trace: 6.269761E-002,6.269761E-002,6.269761E-002,6.269761E-002,6.269761E-002,6.269761E-002,6.269761E-002,6.269761E-002,6.269761E-002,6.269761E-002,
   **   ~~~   ** Air System Named = CENTRAL SYSTEM did not converge for energy
   **   ~~~   ** Check values should be zero. Most Recent values listed first.
   **   ~~~   ** Demand-to-Supply interface energy check value iteration history trace: 1233.993626,1233.993626,1233.993626,1233.993626,1233.993625,1233.993625,1233.993625,1233.993625,1233.993625,1233.993625,
   **   ~~~   ** Supply-to-demand interface deck 1 energy check value iteration history trace: 2262.352152,2262.352152,2262.352152,2262.352152,2262.352152,2262.352152,2262.352152,2262.352151,2262.352151,2262.352151,
   ** Warning ** SimHVAC: Maximum iterations (20) exceeded for all HVAC loops, at ANNUAL, 04/19 21:08 - 21:15
   **   ~~~   ** The solution for one or more of the Air Loop HVAC systems did not appear to converge
   **   ~~~   ** Air System Named = CENTRAL SYSTEM did not converge for mass flow rate
   **   ~~~   ** Check values should be zero. Most Recent values listed first.
   **   ~~~   ** Demand-to-Supply interface mass flow rate check value iteration history trace: 0.149847,0.149847,0.149847,0.149847,0.149847,0.149847,0.149847,0.149847,0.149847,0.149847,
   **   ~~~   ** Supply-to-demand interface deck 1 mass flow rate check value iteration history trace: 0.149847,0.149847,0.149847,0.149847,0.149847,0.149847,0.149847,0.149847,0.149847,0.149847,
   **   ~~~   ** Air System Named = CENTRAL SYSTEM did not converge for energy
   **   ~~~   ** Check values should be zero. Most Recent values listed first.
   **   ~~~   ** Demand-to-Supply interface energy check value iteration history trace: 3583.001335,3583.001336,3583.001336,3583.001336,3583.001336,3583.001336,3583.001336,3583.001337,3583.001337,3583.001337,
   **   ~~~   ** Supply-to-demand interface deck 1 energy check value iteration history trace: 1429.959352,1429.959352,1429.959352,1429.959352,1429.959352,1429.959352,1429.959352,1429.959352,1429.959352,1429.959352,
   ** Warning ** SimHVAC: Maximum iterations (20) exceeded for all HVAC loops, at ANNUAL, 10/17 07:57 - 08:00
   **   ~~~   ** The solution for one or more of the Air Loop HVAC systems did not appear to converge
   **   ~~~   ** Air System Named = CENTRAL SYSTEM did not converge for mass flow rate
   **   ~~~   ** Check values should be zero. Most Recent values listed first.
   **   ~~~   ** Demand-to-Supply interface mass flow rate check value iteration history trace: 7.240064E-002,7.240064E-002,7.240064E-002,7.240064E-002,7.240064E-002,7.240064E-002,7.240064E-002,7.240064E-002,7.240064E-002,7.240064E-002,
   **   ~~~   ** Supply-to-demand interface deck 1 mass flow rate check value iteration history trace: 7.240064E-002,7.240064E-002,7.240064E-002,7.240064E-002,7.240064E-002,7.240064E-002,7.240064E-002,7.240064E-002,7.240064E-002,7.240064E-002,
   **   ~~~   ** Air System Named = CENTRAL SYSTEM did not converge for energy
   **   ~~~   ** Check values should be zero. Most Recent values listed first.
   **   ~~~   ** Demand-to-Supply interface energy check value iteration history trace: 1422.927885,1422.927885,1422.927885,1422.927885,1422.927885,1422.927885,1422.927885,1422.927885,1422.927885,1422.927885,
   **   ~~~   ** Supply-to-demand interface deck 1 energy check value iteration history trace: 2565.803420,2565.803420,2565.803420,2565.803420,2565.803420,2565.803420,2565.803419,2565.803419,2565.803419,2565.803419,
   ** Warning ** SimHVAC: Maximum iterations (20) exceeded for all HVAC loops, at ANNUAL, 10/30 07:08 - 07:15
   **   ~~~   ** The solution for one or more of the Air Loop HVAC systems did not appear to converge
   **   ~~~   ** Air System Named = CENTRAL SYSTEM did not converge for mass flow rate
   **   ~~~   ** Check values should be zero. Most Recent values listed first.
   **   ~~~   ** Demand-to-Supply interface mass flow rate check value iteration history trace: 8.549293E-002,8.549293E-002,8.549293E-002,8.549293E-002,8.549293E-002,8.549293E-002,8.549293E-002,8.549293E-002,8.549293E-002,8.549293E-002,
   **   ~~~   ** Supply-to-demand interface deck 1 mass flow rate check value iteration history trace: 8.549293E-002,8.549293E-002,8.549293E-002,8.549293E-002,8.549293E-002,8.549293E-002,8.549293E-002,8.549293E-002,8.549293E-002,8.549293E-002,
   **   ~~~   ** Air System Named = CENTRAL SYSTEM did not converge for energy
   **   ~~~   ** Check values should be zero. Most Recent values listed first.
   **   ~~~   ** Demand-to-Supply interface energy check value iteration history trace: 1682.865251,1682.865251,1682.865250,1682.865250,1682.865250,1682.865250,1682.865250,1682.865250,1682.865250,1682.865250,
   **   ~~~   ** Supply-to-demand interface deck 1 energy check value iteration history trace: 2791.385354,2791.385354,2791.385354,2791.385354,2791.385353,2791.385353,2791.385353,2791.385353,2791.385353,2791.385353,
   ** Warning ** SimHVAC: Maximum iterations (20) exceeded for all HVAC loops, at ANNUAL, 11/06 06:45 - 07:00
   **   ~~~   ** The solution for one or more of the Air Loop HVAC systems did not appear to converge
   **   ~~~   ** Air System Named = CENTRAL SYSTEM did not converge for mass flow rate
   **   ~~~   ** Check values should be zero. Most Recent values listed first.
   **   ~~~   ** Demand-to-Supply interface mass flow rate check value iteration history trace: 9.072493E-002,9.072493E-002,9.072493E-002,9.072493E-002,9.072493E-002,9.072493E-002,9.072493E-002,9.072493E-002,9.072493E-002,9.072493E-002,
   **   ~~~   ** Supply-to-demand interface deck 1 mass flow rate check value iteration history trace: 9.072493E-002,9.072493E-002,9.072493E-002,9.072493E-002,9.072493E-002,9.072493E-002,9.072493E-002,9.072493E-002,9.072493E-002,9.072493E-002,
   **   ~~~   ** Air System Named = CENTRAL SYSTEM did not converge for energy
   **   ~~~   ** Check values should be zero. Most Recent values listed first.
   **   ~~~   ** Demand-to-Supply interface energy check value iteration history trace: 1772.355372,1772.355372,1772.355372,1772.355372,1772.355372,1772.355372,1772.355371,1772.355371,1772.355371,1772.355371,
   **   ~~~   ** Supply-to-demand interface deck 1 energy check value iteration history trace: 2927.034356,2927.034356,2927.034356,2927.034356,2927.034356,2927.034355,2927.034355,2927.034355,2927.034355,2927.034355,
   ** Warning ** SimHVAC: Maximum iterations (20) exceeded for all HVAC loops, at ANNUAL, 11/22 07:45 - 08:00
   **   ~~~   ** The solution for one or more of the Air Loop HVAC systems did not appear to converge
   **   ~~~   ** Air System Named = CENTRAL SYSTEM did not converge for mass flow rate
   **   ~~~   ** Check values should be zero. Most Recent values listed first.
   **   ~~~   ** Demand-to-Supply interface mass flow rate check value iteration history trace: 7.327973E-002,7.327973E-002,7.327973E-002,7.327973E-002,7.327973E-002,7.327973E-002,7.327973E-002,7.327973E-002,7.327973E-002,7.327973E-002,
   **   ~~~   ** Supply-to-demand interface deck 1 mass flow rate check value iteration history trace: 7.327973E-002,7.327973E-002,7.327973E-002,7.327973E-002,7.327973E-002,7.327973E-002,7.327973E-002,7.327973E-002,7.327973E-002,7.327973E-002,
   **   ~~~   ** Air System Named = CENTRAL SYSTEM did not converge for energy
   **   ~~~   ** Check values should be zero. Most Recent values listed first.
   **   ~~~   ** Demand-to-Supply interface energy check value iteration history trace: 1451.976976,1451.976976,1451.976976,1451.976976,1451.976975,1451.976975,1451.976975,1451.976975,1451.976975,1451.976975,
   **   ~~~   ** Supply-to-demand interface deck 1 energy check value iteration history trace: 2406.194095,2406.194095,2406.194095,2406.194095,2406.194094,2406.194094,2406.194094,2406.194094,2406.194094,2406.194094,
   ** Warning ** SimHVAC: Maximum iterations (20) exceeded for all HVAC loops, at ANNUAL, 11/26 08:45 - 09:00
   **   ~~~   ** The solution for one or more of the Air Loop HVAC systems did not appear to converge
   **   ~~~   ** Air System Named = CENTRAL SYSTEM did not converge for mass flow rate
   **   ~~~   ** Check values should be zero. Most Recent values listed first.
   **   ~~~   ** Demand-to-Supply interface mass flow rate check value iteration history trace: 7.856193E-002,7.856193E-002,7.856193E-002,7.856193E-002,7.856193E-002,7.856193E-002,7.856193E-002,7.856193E-002,7.856193E-002,7.856193E-002,
   **   ~~~   ** Supply-to-demand interface deck 1 mass flow rate check value iteration history trace: 7.856193E-002,7.856193E-002,7.856193E-002,7.856193E-002,7.856193E-002,7.856193E-002,7.856193E-002,7.856193E-002,7.856193E-002,7.856193E-002,
   **   ~~~   ** Air System Named = CENTRAL SYSTEM did not converge for energy
   **   ~~~   ** Check values should be zero. Most Recent values listed first.
   **   ~~~   ** Demand-to-Supply interface energy check value iteration history trace: 1556.674646,1556.674646,1556.674646,1556.674645,1556.674645,1556.674645,1556.674645,1556.674645,1556.674645,1556.674645,
   **   ~~~   ** Supply-to-demand interface deck 1 energy check value iteration history trace: 2582.848864,2582.848864,2582.848864,2582.848864,2582.848864,2582.848864,2582.848864,2582.848864,2582.848863,2582.848863,
   ** Warning ** SimHVAC: Maximum iterations (20) exceeded for all HVAC loops, at ANNUAL, 12/24 11:17 - 11:19
   **   ~~~   ** The solution for one or more of the Air Loop HVAC systems did not appear to converge
   **   ~~~   ** Air System Named = CENTRAL SYSTEM did not converge for mass flow rate
   **   ~~~   ** Check values should be zero. Most Recent values listed first.
   **   ~~~   ** Demand-to-Supply interface mass flow rate check value iteration history trace: 5.965132E-002,5.965132E-002,5.965132E-002,5.965132E-002,5.965132E-002,5.965132E-002,5.965132E-002,5.965132E-002,5.965132E-002,5.965132E-002,
   **   ~~~   ** Supply-to-demand interface deck 1 mass flow rate check value iteration history trace: 5.965132E-002,5.965132E-002,5.965132E-002,5.965132E-002,5.965132E-002,5.965132E-002,5.965132E-002,5.965132E-002,5.965132E-002,5.965132E-002,
   **   ~~~   ** Air System Named = CENTRAL SYSTEM did not converge for energy
   **   ~~~   ** Check values should be zero. Most Recent values listed first.
   **   ~~~   ** Demand-to-Supply interface energy check value iteration history trace: 1178.141111,1178.141111,1178.141111,1178.141111,1178.141111,1178.141111,1178.141111,1178.141111,1178.141111,1178.141111,
   **   ~~~   ** Supply-to-demand interface deck 1 energy check value iteration history trace: 2157.500619,2157.500619,2157.500618,2157.500618,2157.500618,2157.500618,2157.500618,2157.500618,2157.500618,2157.500618,
   ************* Simulation Error Summary *************
   ** Warning ** The following Report Variables were requested but not generated -- check.rdd file
   **   ~~~   ** Either the IDF did not contain these elements, the variable name is misspelled,
   **   ~~~   ** or the requested variable is an advanced output which requires Output : Diagnostics, DisplayAdvancedReportVariables;
   ************* Key=*, VarName=BASEBOARD TOTAL HEATING ENERGY, Frequency=
   ************* Key=*, VarName=WATER HEATER NATURALGAS ENERGY, Frequency=
   ************* Key=*, VarName=COOLING COIL TOTAL HEATING ENERGY, Frequency=
   ************* There are 34 unused schedules in input.
   ************* There are 388 unused week schedules in input.
   ************* There are 396 unused day schedules in input.
   ************* Use Output:Diagnostics,DisplayUnusedSchedules; to see them.
   *************
   ************* ===== Recurring Error Summary =====
   ************* The following recurring error messages occurred.
   *************
   *************  ** Warning ** "TOTAL HOT WATER LOAD" - Target water temperature should be less than or equal to the hot water temperature error continues...
   *************  **   ~~~   **   This error occurred 144337 total times;
   *************  **   ~~~   **   during Warmup 0 times;
   *************  **   ~~~   **   during Sizing 0 times.
   *************  **   ~~~   **   Max=8.407273  Min=7.085628E-005
   *************
   *************
   ************* ===== Final Error Summary =====
   ************* The following error categories occurred.  Consider correcting or noting.
   ************* Nominally Unused Constructions
   ************* ..The nominally unused constructions warning is provided to alert you to potential conditions that can cause
   ************* ..extra time during simulation. Each construction is calculated by the algorithm indicated in the HeatBalanceAlgorithm
   ************* ..object. You may remove the constructions indicated (when you use the DisplayExtraWarnings option).
   *************
   ************* EnergyPlus Warmup Error Summary. During Warmup: 1 Warning; 0 Severe Errors.
   ************* EnergyPlus Sizing Error Summary. During Sizing: 4 Warning; 0 Severe Errors.
   ************* EnergyPlus Completed Successfully-- 144365 Warning; 0 Severe Errors; Elapsed Time=00hr 06min 20.01sec
