Program Version,EnergyPlus, Version 22.2.0-c249759bad, YMD=2023.09.01 19:14,
   ************* Beginning Zone Sizing Calculations
   ** Warning ** ProcessScheduleInput: Schedule:Constant="ALWAYS ON DISCRETE", Schedule Type Limits Name="ONOFF" not found -- will not be validated
   ** Warning ** Foundation:Kiva="KIVA FOUNDATION", no Interior Horizontal Insulation Material Name defined
   **   ~~~   ** Interior Horizontal Insulation Depth will not be used.
   ** Warning ** CheckUsedConstructions: There are 15 nominally unused constructions in input.
   **   ~~~   ** Each Unused construction is shown.
   ************* Construction=INTERIOR FLOOR
   ************* Construction=INTERIOR WINDOW
   ************* Construction=EXTERIOR DOOR
   ************* Construction=INTERIOR DOOR
   ************* Construction=GABLE CONSTRUCTION
   ************* Construction=CRAWL_FLOOR
   ************* Construction=INSULATED PIPE
   ************* Construction=PLAIN PIPE
   ************* Construction=TDD PIPE
   ************* Construction=TDD DOME
   ************* Construction=TDD DIFFUSER
   ************* Construction=CRAWL WALL
   ************* Construction=CEILING-FLOOR-LAYER
   ************* Construction=SLAB CONSTRUCTION W FULL R10 INSULATION
   ************* Construction=SLAB CONSTRUCTION W FULL R5 INSULATION
   ** Warning ** GetDXCoils: Coil:Heating:DX:SingleSpeed="DX_HEATING_COIL" curve values
   **   ~~~   ** ... Defrost Energy Input Ratio Function of Temperature Curve Name = DEFROSTEIR output is not equal to 1.0 (+ or - 10%) at rated conditions.
   **   ~~~   ** ... Curve output at rated conditions = 0.152
   ************* Beginning System Sizing Calculations
   ************* Beginning Plant Sizing Calculations
   ** Warning ** SizeDXCoil Coil:Cooling:DX:SingleSpeed DX_COOLING_COIL
   **   ~~~   ** ...Gross Rated Total Cooling Capacity [W] will be limited by the maximum rated volume flow per rated total capacity ratio.
   **   ~~~   ** ...DX coil volume flow rate ( m3/s ) = 0.358398
   **   ~~~   ** ...Requested capacity ( W ) = 5527.342
   **   ~~~   ** ...Requested flow/capacity ratio ( m3/s/W ) = 6.484E-005
   **   ~~~   ** ...Maximum flow/capacity ratio ( m3/s/W ) = 6.041E-005
   **   ~~~   ** ...Adjusted capacity ( W ) = 5932.774
   ** Warning ** Coil:WaterHeating:AirToWaterHeatPump:Wrapped "HEAT PUMP WATER HEATER EVAPORATOR": Rated air volume flow rate per watt of rated total water heating capacity is out of range
   **   ~~~   ** Min Rated Vol Flow Per Watt=[4.027E-005], Rated Vol Flow Per Watt=[1.510E-004], Max Rated Vol Flow Per Watt=[8.056E-005]. See Input-Output Reference Manual for valid range.
   ************* SizeFan: : Potential issue with equipment sizing for Fan:OnOff HEAT PUMP WATER HEATER FAN
   **   ~~~   ** User-Specified Maximum Flow Rate [m3/s] = 0.22653
   **   ~~~   ** differs from Design Size Maximum Flow Rate [m3/s] = 7.55250E-002
   **   ~~~   ** This may, or may not, indicate mismatched component sizes.
   **   ~~~   ** Verify that the value entered is intended and is consistent with other components.
   ** Warning ** Water heater = WATER HEATER TANK:  Recovery Efficiency and Energy Factor could not be calculated during the test for standard ratings
   **   ~~~   ** Setpoint was never recovered and/or heater never turned on
   ** Warning ** Check input. Pump nominal power or motor efficiency is set to 0, for pump=MAINS PRESSURE
   ** Warning ** Output:Meter: invalid Key Name="ELECTRIC_RANGE:INTERIOREQUIPMENT:ELECTRICITY" - not found.
   ** Warning ** Output:Meter: invalid Key Name="ELECTRIC_DRYER:INTERIOREQUIPMENT:ELECTRICITY" - not found.
   ** Warning ** Output:Meter: invalid Key Name="HEATRECOVERY:ELECTRICITY" - not found.
   ** Warning ** Output:Meter: invalid Key Name="HEATING:NATURALGAS" - not found.
   ** Warning ** Output:Meter: invalid Key Name="WATERSYSTEMS:NATURALGAS" - not found.
   ** Warning ** Output:Meter: invalid Key Name="PROPANE:FACILITY" - not found.
   ** Warning ** Output:Meter: invalid Key Name="HEATING:PROPANE" - not found.
   ************* Testing Individual Branch Integrity
   ************* All Branches passed integrity testing
   ************* Testing Individual Supply Air Path Integrity
   ************* All Supply Air Paths passed integrity testing
   ************* Testing Individual Return Air Path Integrity
   ************* All Return Air Paths passed integrity testing
   ************* No node connection errors were found.
   ************* Beginning Simulation
   ** Warning ** AirflowNetwork::Solver::validate_distribution: Heat pump water heater is simulated along with an AirflowNetwork but is not included in the AirflowNetwork.
   ** Warning ** CalcEquipmentFlowRates: "TOTAL HOT WATER LOAD" - Target water temperature is greater than the hot water temperature by (0.86 C)
   **   ~~~   **  Environment=EXTREME_WINTER, at Simulation time=01/18 06:45 - 07:00
   **   ~~~   ** ...target water temperature     = 53.33 C
   **   ~~~   ** ...hot water temperature        = 52.47 C
   **   ~~~   ** ...Target water temperature should be less than or equal to the hot water temperature. Verify temperature setpoints and schedules.
   ** Warning ** SimHVAC: Maximum iterations (20) exceeded for all HVAC loops, at ANNUAL, 03/15 11:15 - 11:30
   **   ~~~   ** The solution for one or more of the Air Loop HVAC systems did not appear to converge
   **   ~~~   ** Air System Named = CENTRAL SYSTEM did not converge for mass flow rate
   **   ~~~   ** Check values should be zero. Most Recent values listed first.
   **   ~~~   ** Demand-to-Supply interface mass flow rate check value iteration history trace: 8.737743E-002,8.737743E-002,8.737743E-002,8.737743E-002,8.737743E-002,8.737743E-002,8.737743E-002,8.737743E-002,8.737743E-002,8.737743E-002,
   **   ~~~   ** Supply-to-demand interface deck 1 mass flow rate check value iteration history trace: 8.737743E-002,8.737743E-002,8.737743E-002,8.737743E-002,8.737743E-002,8.737743E-002,8.737743E-002,8.737743E-002,8.737743E-002,8.737743E-002,
   **   ~~~   ** Air System Named = CENTRAL SYSTEM did not converge for energy
   **   ~~~   ** Check values should be zero. Most Recent values listed first.
   **   ~~~   ** Demand-to-Supply interface energy check value iteration history trace: 1731.607108,1731.607107,1731.607107,1731.607107,1731.607107,1731.607107,1731.607107,1731.607107,1731.607106,1731.607106,
   **   ~~~   ** Supply-to-demand interface deck 1 energy check value iteration history trace: 2571.686066,2571.686065,2571.686065,2571.686065,2571.686065,2571.686065,2571.686064,2571.686064,2571.686064,2571.686064,
   ** Warning ** SimHVAC: Maximum iterations (20) exceeded for all HVAC loops, at ANNUAL, 03/19 21:00 - 21:15
   **   ~~~   ** The solution for one or more of the Air Loop HVAC systems did not appear to converge
   **   ~~~   ** Air System Named = CENTRAL SYSTEM did not converge for mass flow rate
   **   ~~~   ** Check values should be zero. Most Recent values listed first.
   **   ~~~   ** Demand-to-Supply interface mass flow rate check value iteration history trace: 8.800208E-002,8.800208E-002,8.800208E-002,8.800208E-002,8.800208E-002,8.800208E-002,8.800208E-002,8.800208E-002,8.800208E-002,8.800208E-002,
   **   ~~~   ** Supply-to-demand interface deck 1 mass flow rate check value iteration history trace: 8.800208E-002,8.800208E-002,8.800208E-002,8.800208E-002,8.800208E-002,8.800208E-002,8.800208E-002,8.800208E-002,8.800208E-002,8.800208E-002,
   **   ~~~   ** Air System Named = CENTRAL SYSTEM did not converge for energy
   **   ~~~   ** Check values should be zero. Most Recent values listed first.
   **   ~~~   ** Demand-to-Supply interface energy check value iteration history trace: 1739.661474,1739.661474,1739.661474,1739.661474,1739.661474,1739.661474,1739.661473,1739.661473,1739.661473,1739.661473,
   **   ~~~   ** Supply-to-demand interface deck 1 energy check value iteration history trace: 2613.980734,2613.980734,2613.980733,2613.980733,2613.980733,2613.980733,2613.980733,2613.980732,2613.980732,2613.980732,
   ** Warning ** SimHVAC: Maximum iterations (20) exceeded for all HVAC loops, at ANNUAL, 03/25 13:30 - 13:45
   **   ~~~   ** The solution for one or more of the Air Loop HVAC systems did not appear to converge
   **   ~~~   ** Air System Named = CENTRAL SYSTEM did not converge for mass flow rate
   **   ~~~   ** Check values should be zero. Most Recent values listed first.
   **   ~~~   ** Demand-to-Supply interface mass flow rate check value iteration history trace: 7.120492E-002,7.120492E-002,7.120492E-002,7.120492E-002,7.120492E-002,7.120492E-002,7.120492E-002,7.120492E-002,7.120492E-002,7.120492E-002,
   **   ~~~   ** Supply-to-demand interface deck 1 mass flow rate check value iteration history trace: 7.120492E-002,7.120492E-002,7.120492E-002,7.120492E-002,7.120492E-002,7.120492E-002,7.120492E-002,7.120492E-002,7.120492E-002,7.120492E-002,
   **   ~~~   ** Air System Named = CENTRAL SYSTEM did not converge for energy
   **   ~~~   ** Check values should be zero. Most Recent values listed first.
   **   ~~~   ** Demand-to-Supply interface energy check value iteration history trace: 1386.704198,1386.704198,1386.704198,1386.704198,1386.704198,1386.704198,1386.704198,1386.704198,1386.704198,1386.704198,
   **   ~~~   ** Supply-to-demand interface deck 1 energy check value iteration history trace: 2163.560248,2163.560248,2163.560248,2163.560247,2163.560247,2163.560247,2163.560247,2163.560247,2163.560247,2163.560247,
   ** Warning ** SimHVAC: Maximum iterations (20) exceeded for all HVAC loops, at ANNUAL, 04/03 19:45 - 20:00
   **   ~~~   ** The solution for one or more of the Air Loop HVAC systems did not appear to converge
   **   ~~~   ** Air System Named = CENTRAL SYSTEM did not converge for mass flow rate
   **   ~~~   ** Check values should be zero. Most Recent values listed first.
   **   ~~~   ** Demand-to-Supply interface mass flow rate check value iteration history trace: 6.096264E-002,6.096264E-002,6.096264E-002,6.096264E-002,6.096264E-002,6.096264E-002,6.096264E-002,6.096264E-002,6.096264E-002,6.096264E-002,
   **   ~~~   ** Supply-to-demand interface deck 1 mass flow rate check value iteration history trace: 6.096264E-002,6.096264E-002,6.096264E-002,6.096264E-002,6.096264E-002,6.096264E-002,6.096264E-002,6.096264E-002,6.096264E-002,6.096264E-002,
   **   ~~~   ** Air System Named = CENTRAL SYSTEM did not converge for energy
   **   ~~~   ** Check values should be zero. Most Recent values listed first.
   **   ~~~   ** Demand-to-Supply interface energy check value iteration history trace: 1198.200499,1198.200499,1198.200499,1198.200499,1198.200498,1198.200498,1198.200498,1198.200498,1198.200498,1198.200498,
   **   ~~~   ** Supply-to-demand interface deck 1 energy check value iteration history trace: 2057.602516,2057.602515,2057.602515,2057.602515,2057.602515,2057.602515,2057.602515,2057.602515,2057.602515,2057.602515,
   ** Warning ** SimHVAC: Maximum iterations (20) exceeded for all HVAC loops, at ANNUAL, 04/23 07:30 - 07:34
   **   ~~~   ** The solution for one or more of the Air Loop HVAC systems did not appear to converge
   **   ~~~   ** Air System Named = CENTRAL SYSTEM did not converge for mass flow rate
   **   ~~~   ** Check values should be zero. Most Recent values listed first.
   **   ~~~   ** Demand-to-Supply interface mass flow rate check value iteration history trace: 6.340756E-002,6.340756E-002,6.340756E-002,6.340756E-002,6.340756E-002,6.340756E-002,6.340756E-002,6.340756E-002,6.340756E-002,6.340756E-002,
   **   ~~~   ** Supply-to-demand interface deck 1 mass flow rate check value iteration history trace: 6.340756E-002,6.340756E-002,6.340756E-002,6.340756E-002,6.340756E-002,6.340756E-002,6.340756E-002,6.340756E-002,6.340756E-002,6.340756E-002,
   **   ~~~   ** Air System Named = CENTRAL SYSTEM did not converge for energy
   **   ~~~   ** Check values should be zero. Most Recent values listed first.
   **   ~~~   ** Demand-to-Supply interface energy check value iteration history trace: 1256.480932,1256.480932,1256.480932,1256.480932,1256.480932,1256.480932,1256.480932,1256.480932,1256.480932,1256.480931,
   **   ~~~   ** Supply-to-demand interface deck 1 energy check value iteration history trace: 2118.387326,2118.387325,2118.387325,2118.387325,2118.387325,2118.387325,2118.387325,2118.387325,2118.387325,2118.387325,
   ** Warning ** SimHVAC: Maximum iterations (20) exceeded for all HVAC loops, at ANNUAL, 04/25 05:30 - 05:45
   **   ~~~   ** The solution for one or more of the Air Loop HVAC systems did not appear to converge
   **   ~~~   ** Air System Named = CENTRAL SYSTEM did not converge for mass flow rate
   **   ~~~   ** Check values should be zero. Most Recent values listed first.
   **   ~~~   ** Demand-to-Supply interface mass flow rate check value iteration history trace: 6.055447E-002,6.055447E-002,6.055447E-002,6.055447E-002,6.055447E-002,6.055447E-002,6.055447E-002,6.055447E-002,6.055447E-002,6.055447E-002,
   **   ~~~   ** Supply-to-demand interface deck 1 mass flow rate check value iteration history trace: 6.055447E-002,6.055447E-002,6.055447E-002,6.055447E-002,6.055447E-002,6.055447E-002,6.055447E-002,6.055447E-002,6.055447E-002,6.055447E-002,
   **   ~~~   ** Air System Named = CENTRAL SYSTEM did not converge for energy
   **   ~~~   ** Check values should be zero. Most Recent values listed first.
   **   ~~~   ** Demand-to-Supply interface energy check value iteration history trace: 1197.858333,1197.858333,1197.858333,1197.858333,1197.858333,1197.858333,1197.858333,1197.858333,1197.858333,1197.858333,
   **   ~~~   ** Supply-to-demand interface deck 1 energy check value iteration history trace: 2066.630124,2066.630124,2066.630124,2066.630123,2066.630123,2066.630123,2066.630123,2066.630123,2066.630123,2066.630123,
   ** Warning ** SimHVAC: Maximum iterations (20) exceeded for all HVAC loops, at ANNUAL, 05/05 20:45 - 20:52
   **   ~~~   ** The solution for one or more of the Air Loop HVAC systems did not appear to converge
   **   ~~~   ** Air System Named = CENTRAL SYSTEM did not converge for mass flow rate
   **   ~~~   ** Check values should be zero. Most Recent values listed first.
   **   ~~~   ** Demand-to-Supply interface mass flow rate check value iteration history trace: 6.348103E-002,6.348103E-002,6.348103E-002,6.348103E-002,6.348103E-002,6.348103E-002,6.348103E-002,6.348103E-002,6.348103E-002,6.348103E-002,
   **   ~~~   ** Supply-to-demand interface deck 1 mass flow rate check value iteration history trace: 6.348103E-002,6.348103E-002,6.348103E-002,6.348103E-002,6.348103E-002,6.348103E-002,6.348103E-002,6.348103E-002,6.348103E-002,6.348103E-002,
   **   ~~~   ** Air System Named = CENTRAL SYSTEM did not converge for energy
   **   ~~~   ** Check values should be zero. Most Recent values listed first.
   **   ~~~   ** Demand-to-Supply interface energy check value iteration history trace: 1257.672973,1257.672973,1257.672973,1257.672973,1257.672973,1257.672973,1257.672973,1257.672973,1257.672973,1257.672973,
   **   ~~~   ** Supply-to-demand interface deck 1 energy check value iteration history trace: 2096.490746,2096.490746,2096.490746,2096.490746,2096.490746,2096.490746,2096.490746,2096.490745,2096.490745,2096.490745,
   ** Warning ** SimHVAC: Maximum iterations (20) exceeded for all HVAC loops, at ANNUAL, 05/18 08:23 - 08:25
   **   ~~~   ** The solution for one or more of the Air Loop HVAC systems did not appear to converge
   **   ~~~   ** Air System Named = CENTRAL SYSTEM did not converge for mass flow rate
   **   ~~~   ** Check values should be zero. Most Recent values listed first.
   **   ~~~   ** Demand-to-Supply interface mass flow rate check value iteration history trace: 5.595981E-002,5.595981E-002,5.595981E-002,5.595981E-002,5.595981E-002,5.595981E-002,5.595981E-002,5.595981E-002,5.595981E-002,5.595981E-002,
   **   ~~~   ** Supply-to-demand interface deck 1 mass flow rate check value iteration history trace: 5.595981E-002,5.595981E-002,5.595981E-002,5.595981E-002,5.595981E-002,5.595981E-002,5.595981E-002,5.595981E-002,5.595981E-002,5.595981E-002,
   **   ~~~   ** Air System Named = CENTRAL SYSTEM did not converge for energy
   **   ~~~   ** Check values should be zero. Most Recent values listed first.
   **   ~~~   ** Demand-to-Supply interface energy check value iteration history trace: 1105.525725,1105.525725,1105.525725,1105.525725,1105.525725,1105.525725,1105.525725,1105.525725,1105.525725,1105.525725,
   **   ~~~   ** Supply-to-demand interface deck 1 energy check value iteration history trace: 1969.448743,1969.448743,1969.448743,1969.448743,1969.448743,1969.448743,1969.448742,1969.448742,1969.448742,1969.448742,
   ** Warning ** SimHVAC: Maximum iterations (20) exceeded for all HVAC loops, at ANNUAL, 06/23 09:10 - 09:15
   **   ~~~   ** The solution for one or more of the Air Loop HVAC systems did not appear to converge
   **   ~~~   ** Air System Named = CENTRAL SYSTEM did not converge for mass flow rate
   **   ~~~   ** Check values should be zero. Most Recent values listed first.
   **   ~~~   ** Demand-to-Supply interface mass flow rate check value iteration history trace: 1.040399E-002,1.040399E-002,1.040399E-002,1.040399E-002,1.040399E-002,1.040399E-002,1.040399E-002,1.040399E-002,1.040399E-002,1.040399E-002,
   **   ~~~   ** Supply-to-demand interface deck 1 mass flow rate check value iteration history trace: 1.040399E-002,1.040399E-002,1.040399E-002,1.040399E-002,1.040399E-002,1.040399E-002,1.040399E-002,1.040399E-002,1.040399E-002,1.040399E-002,
   **   ~~~   ** Air System Named = CENTRAL SYSTEM did not converge for energy
   **   ~~~   ** Check values should be zero. Most Recent values listed first.
   **   ~~~   ** Demand-to-Supply interface energy check value iteration history trace: 243.708604,243.708604,243.708604,243.708604,243.708604,243.708604,243.708604,243.708604,243.708604,243.708604,
   **   ~~~   ** Supply-to-demand interface deck 1 energy check value iteration history trace: 112.742317,112.742317,112.742317,112.742317,112.742317,112.742317,112.742317,112.742317,112.742317,112.742317,
   ** Warning ** SimHVAC: Maximum iterations (20) exceeded for all HVAC loops, at ANNUAL, 06/26 05:15 - 05:30
   **   ~~~   ** The solution for one or more of the Air Loop HVAC systems did not appear to converge
   **   ~~~   ** Air System Named = CENTRAL SYSTEM did not converge for mass flow rate
   **   ~~~   ** Check values should be zero. Most Recent values listed first.
   **   ~~~   ** Demand-to-Supply interface mass flow rate check value iteration history trace: 6.109026E-002,6.109026E-002,6.109026E-002,6.109026E-002,6.109026E-002,6.109026E-002,6.109026E-002,6.109026E-002,6.109026E-002,6.109026E-002,
   **   ~~~   ** Supply-to-demand interface deck 1 mass flow rate check value iteration history trace: 6.109026E-002,6.109026E-002,6.109026E-002,6.109026E-002,6.109026E-002,6.109026E-002,6.109026E-002,6.109026E-002,6.109026E-002,6.109026E-002,
   **   ~~~   ** Air System Named = CENTRAL SYSTEM did not converge for energy
   **   ~~~   ** Check values should be zero. Most Recent values listed first.
   **   ~~~   ** Demand-to-Supply interface energy check value iteration history trace: 1467.189877,1467.189878,1467.189878,1467.189879,1467.189879,1467.189879,1467.189880,1467.189880,1467.189881,1467.189881,
   **   ~~~   ** Supply-to-demand interface deck 1 energy check value iteration history trace: 764.828296,764.828296,764.828296,764.828296,764.828297,764.828297,764.828297,764.828297,764.828298,764.828298,
   ** Warning ** SimHVAC: Maximum iterations (20) exceeded for all HVAC loops, at ANNUAL, 09/19 04:15 - 04:30
   **   ~~~   ** The solution for one or more of the Air Loop HVAC systems did not appear to converge
   **   ~~~   ** Air System Named = CENTRAL SYSTEM did not converge for mass flow rate
   **   ~~~   ** Check values should be zero. Most Recent values listed first.
   **   ~~~   ** Demand-to-Supply interface mass flow rate check value iteration history trace: 8.674474E-002,8.674474E-002,8.674474E-002,8.674474E-002,8.674474E-002,8.674474E-002,8.674474E-002,8.674474E-002,8.674474E-002,8.674474E-002,
   **   ~~~   ** Supply-to-demand interface deck 1 mass flow rate check value iteration history trace: 8.674474E-002,8.674474E-002,8.674474E-002,8.674474E-002,8.674474E-002,8.674474E-002,8.674474E-002,8.674474E-002,8.674474E-002,8.674474E-002,
   **   ~~~   ** Air System Named = CENTRAL SYSTEM did not converge for energy
   **   ~~~   ** Check values should be zero. Most Recent values listed first.
   **   ~~~   ** Demand-to-Supply interface energy check value iteration history trace: 1620.858721,1620.858721,1620.858720,1620.858720,1620.858720,1620.858720,1620.858720,1620.858720,1620.858720,1620.858720,
   **   ~~~   ** Supply-to-demand interface deck 1 energy check value iteration history trace: 2428.826001,2428.826001,2428.826001,2428.826001,2428.826001,2428.826000,2428.826000,2428.826000,2428.826000,2428.826000,
   ** Warning ** SimHVAC: Maximum iterations (20) exceeded for all HVAC loops, at ANNUAL, 09/19 04:15 - 04:22
   **   ~~~   ** The solution for one or more of the Air Loop HVAC systems did not appear to converge
   **   ~~~   ** Air System Named = CENTRAL SYSTEM did not converge for mass flow rate
   **   ~~~   ** Check values should be zero. Most Recent values listed first.
   **   ~~~   ** Demand-to-Supply interface mass flow rate check value iteration history trace: 8.682816E-002,8.682816E-002,8.682816E-002,8.682816E-002,8.682816E-002,8.682816E-002,8.682816E-002,8.682816E-002,8.682816E-002,8.682816E-002,
   **   ~~~   ** Supply-to-demand interface deck 1 mass flow rate check value iteration history trace: 8.682816E-002,8.682816E-002,8.682816E-002,8.682816E-002,8.682816E-002,8.682816E-002,8.682816E-002,8.682816E-002,8.682816E-002,8.682816E-002,
   **   ~~~   ** Air System Named = CENTRAL SYSTEM did not converge for energy
   **   ~~~   ** Check values should be zero. Most Recent values listed first.
   **   ~~~   ** Demand-to-Supply interface energy check value iteration history trace: 1619.087626,1619.087626,1619.087626,1619.087626,1619.087626,1619.087625,1619.087625,1619.087625,1619.087625,1619.087625,
   **   ~~~   ** Supply-to-demand interface deck 1 energy check value iteration history trace: 2427.937552,2427.937551,2427.937551,2427.937551,2427.937551,2427.937551,2427.937550,2427.937550,2427.937550,2427.937550,
   ** Warning ** SimHVAC: Maximum iterations (20) exceeded for all HVAC loops, at ANNUAL, 09/19 11:15 - 11:30
   **   ~~~   ** The solution for one or more of the Air Loop HVAC systems did not appear to converge
   **   ~~~   ** Air System Named = CENTRAL SYSTEM did not converge for mass flow rate
   **   ~~~   ** Check values should be zero. Most Recent values listed first.
   **   ~~~   ** Demand-to-Supply interface mass flow rate check value iteration history trace: 1.841443E-002,1.841443E-002,1.841443E-002,1.841443E-002,1.841443E-002,1.841443E-002,1.841443E-002,1.841443E-002,1.841443E-002,1.841443E-002,
   **   ~~~   ** Supply-to-demand interface deck 1 mass flow rate check value iteration history trace: 1.841443E-002,1.841443E-002,1.841443E-002,1.841443E-002,1.841443E-002,1.841443E-002,1.841443E-002,1.841443E-002,1.841443E-002,1.841443E-002,
   **   ~~~   ** Air System Named = CENTRAL SYSTEM did not converge for energy
   **   ~~~   ** Check values should be zero. Most Recent values listed first.
   **   ~~~   ** Demand-to-Supply interface energy check value iteration history trace: 429.274085,429.274085,429.274085,429.274085,429.274085,429.274085,429.274085,429.274085,429.274085,429.274085,
   **   ~~~   ** Supply-to-demand interface deck 1 energy check value iteration history trace: 190.705087,190.705087,190.705087,190.705087,190.705087,190.705087,190.705087,190.705087,190.705087,190.705087,
   ** Warning ** SimHVAC: Maximum iterations (20) exceeded for all HVAC loops, at ANNUAL, 09/25 00:08 - 00:15
   **   ~~~   ** The solution for one or more of the Air Loop HVAC systems did not appear to converge
   **   ~~~   ** Air System Named = CENTRAL SYSTEM did not converge for energy
   **   ~~~   ** Check values should be zero. Most Recent values listed first.
   **   ~~~   ** Demand-to-Supply interface energy check value iteration history trace: 109.467724,109.467724,109.467724,109.467724,109.467724,109.467724,109.467724,109.467724,109.467724,109.467724,
   **   ~~~   ** Supply-to-demand interface deck 1 energy check value iteration history trace: 54.805248,54.805248,54.805248,54.805248,54.805248,54.805249,54.805249,54.805249,54.805249,54.805249,
   ************* Simulation Error Summary *************
   ** Warning ** The following Report Variables were requested but not generated -- check.rdd file
   **   ~~~   ** Either the IDF did not contain these elements, the variable name is misspelled,
   **   ~~~   ** or the requested variable is an advanced output which requires Output : Diagnostics, DisplayAdvancedReportVariables;
   ************* Key=*, VarName=BASEBOARD TOTAL HEATING ENERGY, Frequency=
   ************* Key=*, VarName=WATER HEATER NATURALGAS ENERGY, Frequency=
   ************* Key=*, VarName=COOLING COIL TOTAL HEATING ENERGY, Frequency=
   ************* There are 34 unused schedules in input.
   ************* There are 388 unused week schedules in input.
   ************* There are 397 unused day schedules in input.
   ************* Use Output:Diagnostics,DisplayUnusedSchedules; to see them.
   *************
   ************* ===== Recurring Error Summary =====
   ************* The following recurring error messages occurred.
   *************
   *************  ** Warning ** "TOTAL HOT WATER LOAD" - Target water temperature should be less than or equal to the hot water temperature error continues...
   *************  **   ~~~   **   This error occurred 105685 total times;
   *************  **   ~~~   **   during Warmup 0 times;
   *************  **   ~~~   **   during Sizing 0 times.
   *************  **   ~~~   **   Max=9.753549  Min=4.195802E-004
   *************
   *************  ** Warning ** SimHVAC: Exceeding Maximum iterations for all HVAC loops, during ANNUAL continues
   *************  **   ~~~   **   This error occurred 12 total times;
   *************  **   ~~~   **   during Warmup 0 times;
   *************  **   ~~~   **   during Sizing 0 times.
   *************
   *************
   ************* ===== Final Error Summary =====
   ************* The following error categories occurred.  Consider correcting or noting.
   ************* Nominally Unused Constructions
   ************* ..The nominally unused constructions warning is provided to alert you to potential conditions that can cause
   ************* ..extra time during simulation. Each construction is calculated by the algorithm indicated in the HeatBalanceAlgorithm
   ************* ..object. You may remove the constructions indicated (when you use the DisplayExtraWarnings option).
   *************
   ************* EnergyPlus Warmup Error Summary. During Warmup: 1 Warning; 0 Severe Errors.
   ************* EnergyPlus Sizing Error Summary. During Sizing: 4 Warning; 0 Severe Errors.
   ************* EnergyPlus Completed Successfully-- 105729 Warning; 0 Severe Errors; Elapsed Time=00hr 01min 38.15sec
