Program Version,EnergyPlus, Version 22.2.0-c249759bad, YMD=2023.09.01 19:33,
   ************* Beginning Zone Sizing Calculations
   ** Warning ** ProcessScheduleInput: Schedule:Constant="ALWAYS ON DISCRETE", Schedule Type Limits Name="ONOFF" not found -- will not be validated
   ** Warning ** Foundation:Kiva="KIVA FOUNDATION", no Interior Horizontal Insulation Material Name defined
   **   ~~~   ** Interior Horizontal Insulation Depth will not be used.
   ** Warning ** CheckUsedConstructions: There are 15 nominally unused constructions in input.
   **   ~~~   ** Each Unused construction is shown.
   ************* Construction=INTERIOR FLOOR
   ************* Construction=INTERIOR WINDOW
   ************* Construction=EXTERIOR DOOR
   ************* Construction=INTERIOR DOOR
   ************* Construction=GABLE CONSTRUCTION
   ************* Construction=CRAWL_FLOOR
   ************* Construction=INSULATED PIPE
   ************* Construction=PLAIN PIPE
   ************* Construction=TDD PIPE
   ************* Construction=TDD DOME
   ************* Construction=TDD DIFFUSER
   ************* Construction=CRAWL WALL
   ************* Construction=CEILING-FLOOR-LAYER
   ************* Construction=SLAB CONSTRUCTION W FULL R10 INSULATION
   ************* Construction=SLAB CONSTRUCTION W FULL R5 INSULATION
   ** Warning ** GetDXCoils: Coil:Heating:DX:SingleSpeed="DX_HEATING_COIL" curve values
   **   ~~~   ** ... Defrost Energy Input Ratio Function of Temperature Curve Name = DEFROSTEIR output is not equal to 1.0 (+ or - 10%) at rated conditions.
   **   ~~~   ** ... Curve output at rated conditions = 0.152
   ************* Beginning System Sizing Calculations
   ************* Beginning Plant Sizing Calculations
   ** Warning ** SizeDXCoil Coil:Cooling:DX:SingleSpeed DX_COOLING_COIL
   **   ~~~   ** ...Gross Rated Total Cooling Capacity [W] will be limited by the maximum rated volume flow per rated total capacity ratio.
   **   ~~~   ** ...DX coil volume flow rate ( m3/s ) = 0.467046
   **   ~~~   ** ...Requested capacity ( W ) = 7406.698
   **   ~~~   ** ...Requested flow/capacity ratio ( m3/s/W ) = 6.305E-005
   **   ~~~   ** ...Maximum flow/capacity ratio ( m3/s/W ) = 6.041E-005
   **   ~~~   ** ...Adjusted capacity ( W ) = 7731.273
   ** Warning ** Coil:WaterHeating:AirToWaterHeatPump:Wrapped "HEAT PUMP WATER HEATER EVAPORATOR": Rated air volume flow rate per watt of rated total water heating capacity is out of range
   **   ~~~   ** Min Rated Vol Flow Per Watt=[4.027E-005], Rated Vol Flow Per Watt=[1.510E-004], Max Rated Vol Flow Per Watt=[8.056E-005]. See Input-Output Reference Manual for valid range.
   ************* SizeFan: : Potential issue with equipment sizing for Fan:OnOff HEAT PUMP WATER HEATER FAN
   **   ~~~   ** User-Specified Maximum Flow Rate [m3/s] = 0.22653
   **   ~~~   ** differs from Design Size Maximum Flow Rate [m3/s] = 7.55250E-002
   **   ~~~   ** This may, or may not, indicate mismatched component sizes.
   **   ~~~   ** Verify that the value entered is intended and is consistent with other components.
   ** Warning ** Water heater = WATER HEATER TANK:  Recovery Efficiency and Energy Factor could not be calculated during the test for standard ratings
   **   ~~~   ** Setpoint was never recovered and/or heater never turned on
   ** Warning ** Check input. Pump nominal power or motor efficiency is set to 0, for pump=MAINS PRESSURE
   ** Warning ** Output:Meter: invalid Key Name="ELECTRIC_RANGE:INTERIOREQUIPMENT:ELECTRICITY" - not found.
   ** Warning ** Output:Meter: invalid Key Name="ELECTRIC_DRYER:INTERIOREQUIPMENT:ELECTRICITY" - not found.
   ** Warning ** Output:Meter: invalid Key Name="HEATRECOVERY:ELECTRICITY" - not found.
   ** Warning ** Output:Meter: invalid Key Name="HEATING:NATURALGAS" - not found.
   ** Warning ** Output:Meter: invalid Key Name="WATERSYSTEMS:NATURALGAS" - not found.
   ** Warning ** Output:Meter: invalid Key Name="PROPANE:FACILITY" - not found.
   ** Warning ** Output:Meter: invalid Key Name="HEATING:PROPANE" - not found.
   ************* Testing Individual Branch Integrity
   ************* All Branches passed integrity testing
   ************* Testing Individual Supply Air Path Integrity
   ************* All Supply Air Paths passed integrity testing
   ************* Testing Individual Return Air Path Integrity
   ************* All Return Air Paths passed integrity testing
   ************* No node connection errors were found.
   ************* Beginning Simulation
   ** Warning ** AirflowNetwork::Solver::validate_distribution: Heat pump water heater is simulated along with an AirflowNetwork but is not included in the AirflowNetwork.
   ** Warning ** CalcEquipmentFlowRates: "TOTAL HOT WATER LOAD" - Target water temperature is greater than the hot water temperature by (2.93E-002 C)
   **   ~~~   **  Environment=EXTREME_WINTER, at Simulation time=01/29 06:00 - 06:15
   **   ~~~   ** ...target water temperature     = 53.33 C
   **   ~~~   ** ...hot water temperature        = 53.30 C
   **   ~~~   ** ...Target water temperature should be less than or equal to the hot water temperature. Verify temperature setpoints and schedules.
   ** Warning ** SimHVAC: Maximum iterations (20) exceeded for all HVAC loops, at ANNUAL, 01/22 17:00 - 17:08
   **   ~~~   ** The solution for one or more of the Air Loop HVAC systems did not appear to converge
   **   ~~~   ** Air System Named = CENTRAL SYSTEM did not converge for mass flow rate
   **   ~~~   ** Check values should be zero. Most Recent values listed first.
   **   ~~~   ** Demand-to-Supply interface mass flow rate check value iteration history trace: 5.746224E-002,5.746224E-002,5.746224E-002,5.746224E-002,5.746224E-002,5.746224E-002,5.746224E-002,5.746224E-002,5.746224E-002,5.746224E-002,
   **   ~~~   ** Supply-to-demand interface deck 1 mass flow rate check value iteration history trace: 5.746224E-002,5.746224E-002,5.746224E-002,5.746224E-002,5.746224E-002,5.746224E-002,5.746224E-002,5.746224E-002,5.746224E-002,5.746224E-002,
   **   ~~~   ** Air System Named = CENTRAL SYSTEM did not converge for energy
   **   ~~~   ** Check values should be zero. Most Recent values listed first.
   **   ~~~   ** Demand-to-Supply interface energy check value iteration history trace: 1138.668000,1138.668000,1138.668000,1138.668000,1138.668000,1138.668000,1138.667999,1138.667999,1138.667999,1138.667999,
   **   ~~~   ** Supply-to-demand interface deck 1 energy check value iteration history trace: 1956.808809,1956.808809,1956.808809,1956.808809,1956.808809,1956.808809,1956.808808,1956.808808,1956.808808,1956.808808,
   ** Warning ** SimHVAC: Maximum iterations (20) exceeded for all HVAC loops, at ANNUAL, 01/24 09:19 - 09:22
   **   ~~~   ** The solution for one or more of the Air Loop HVAC systems did not appear to converge
   **   ~~~   ** Air System Named = CENTRAL SYSTEM did not converge for mass flow rate
   **   ~~~   ** Check values should be zero. Most Recent values listed first.
   **   ~~~   ** Demand-to-Supply interface mass flow rate check value iteration history trace: 6.214999E-002,6.214999E-002,6.214999E-002,6.214999E-002,6.214999E-002,6.214999E-002,6.214999E-002,6.214999E-002,6.214999E-002,6.214999E-002,
   **   ~~~   ** Supply-to-demand interface deck 1 mass flow rate check value iteration history trace: 6.214999E-002,6.214999E-002,6.214999E-002,6.214999E-002,6.214999E-002,6.214999E-002,6.214999E-002,6.214999E-002,6.214999E-002,6.214999E-002,
   **   ~~~   ** Air System Named = CENTRAL SYSTEM did not converge for energy
   **   ~~~   ** Check values should be zero. Most Recent values listed first.
   **   ~~~   ** Demand-to-Supply interface energy check value iteration history trace: 1231.621398,1231.621398,1231.621398,1231.621398,1231.621398,1231.621398,1231.621398,1231.621398,1231.621398,1231.621398,
   **   ~~~   ** Supply-to-demand interface deck 1 energy check value iteration history trace: 2169.004160,2169.004160,2169.004160,2169.004160,2169.004160,2169.004160,2169.004160,2169.004160,2169.004160,2169.004159,
   ** Warning ** Temperature out of range [-100. to 200.] (PsyPsatFnTemp)
   **   ~~~   **  Routine=PsyTwbFnTdbWPb, Environment=ANNUAL, at Simulation time=02/07 16:45 - 16:49
   **   ~~~   **  Input Temperature=-3911.73
   ** Warning ** SimHVAC: Maximum iterations (20) exceeded for all HVAC loops, at ANNUAL, 02/18 08:48 - 08:51
   **   ~~~   ** The solution for one or more of the Air Loop HVAC systems did not appear to converge
   **   ~~~   ** Air System Named = CENTRAL SYSTEM did not converge for mass flow rate
   **   ~~~   ** Check values should be zero. Most Recent values listed first.
   **   ~~~   ** Demand-to-Supply interface mass flow rate check value iteration history trace: 6.403284E-002,6.403284E-002,6.403284E-002,6.403284E-002,6.403284E-002,6.403284E-002,6.403284E-002,6.403284E-002,6.403284E-002,6.403284E-002,
   **   ~~~   ** Supply-to-demand interface deck 1 mass flow rate check value iteration history trace: 6.403284E-002,6.403284E-002,6.403284E-002,6.403284E-002,6.403284E-002,6.403284E-002,6.403284E-002,6.403284E-002,6.403284E-002,6.403284E-002,
   **   ~~~   ** Air System Named = CENTRAL SYSTEM did not converge for energy
   **   ~~~   ** Check values should be zero. Most Recent values listed first.
   **   ~~~   ** Demand-to-Supply interface energy check value iteration history trace: 1260.879271,1260.879271,1260.879271,1260.879271,1260.879271,1260.879271,1260.879271,1260.879271,1260.879271,1260.879271,
   **   ~~~   ** Supply-to-demand interface deck 1 energy check value iteration history trace: 2331.296474,2331.296474,2331.296474,2331.296474,2331.296474,2331.296474,2331.296474,2331.296474,2331.296473,2331.296473,
   ** Warning ** SimHVAC: Maximum iterations (20) exceeded for all HVAC loops, at ANNUAL, 03/31 06:45 - 07:00
   **   ~~~   ** The solution for one or more of the Air Loop HVAC systems did not appear to converge
   **   ~~~   ** Air System Named = CENTRAL SYSTEM did not converge for mass flow rate
   **   ~~~   ** Check values should be zero. Most Recent values listed first.
   **   ~~~   ** Demand-to-Supply interface mass flow rate check value iteration history trace: 5.441691E-002,5.441691E-002,5.441691E-002,5.441691E-002,5.441691E-002,5.441691E-002,5.441691E-002,5.441691E-002,5.441691E-002,5.441691E-002,
   **   ~~~   ** Supply-to-demand interface deck 1 mass flow rate check value iteration history trace: 5.441691E-002,5.441691E-002,5.441691E-002,5.441691E-002,5.441691E-002,5.441691E-002,5.441691E-002,5.441691E-002,5.441691E-002,5.441691E-002,
   **   ~~~   ** Air System Named = CENTRAL SYSTEM did not converge for energy
   **   ~~~   ** Check values should be zero. Most Recent values listed first.
   **   ~~~   ** Demand-to-Supply interface energy check value iteration history trace: 1077.308582,1077.308581,1077.308581,1077.308581,1077.308581,1077.308581,1077.308581,1077.308580,1077.308580,1077.308580,
   **   ~~~   ** Supply-to-demand interface deck 1 energy check value iteration history trace: 2006.965474,2006.965474,2006.965473,2006.965473,2006.965473,2006.965472,2006.965472,2006.965472,2006.965471,2006.965471,
   **   ~~~   ** Node named ZONE INLET NODE shows oscillating temperatures across iterations with a repeated value of 36.703495
   **   ~~~   ** Node named ZONE INLET NODE temperature [C] iteration history trace (most recent first): 36.703495,36.703495,36.703494,36.703494,36.703494,36.703493,36.703493,36.703493,36.703492,36.703492,
   ** Warning ** SimHVAC: Maximum iterations (20) exceeded for all HVAC loops, at ANNUAL, 04/24 07:45 - 08:00
   **   ~~~   ** The solution for one or more of the Air Loop HVAC systems did not appear to converge
   **   ~~~   ** Air System Named = CENTRAL SYSTEM did not converge for mass flow rate
   **   ~~~   ** Check values should be zero. Most Recent values listed first.
   **   ~~~   ** Demand-to-Supply interface mass flow rate check value iteration history trace: 0.109911,0.109911,0.109911,0.109911,0.109911,0.109911,0.109911,0.109911,0.109911,0.109911,
   **   ~~~   ** Supply-to-demand interface deck 1 mass flow rate check value iteration history trace: 0.109911,0.109911,0.109911,0.109911,0.109911,0.109911,0.109911,0.109911,0.109911,0.109911,
   **   ~~~   ** Air System Named = CENTRAL SYSTEM did not converge for energy
   **   ~~~   ** Check values should be zero. Most Recent values listed first.
   **   ~~~   ** Demand-to-Supply interface energy check value iteration history trace: 2566.836935,2566.836936,2566.836936,2566.836936,2566.836936,2566.836937,2566.836937,2566.836937,2566.836937,2566.836937,
   **   ~~~   ** Supply-to-demand interface deck 1 energy check value iteration history trace: 1490.134556,1490.134556,1490.134556,1490.134556,1490.134556,1490.134556,1490.134556,1490.134556,1490.134557,1490.134557,
   ** Warning ** SimHVAC: Maximum iterations (20) exceeded for all HVAC loops, at ANNUAL, 04/27 08:30 - 08:45
   **   ~~~   ** The solution for one or more of the Air Loop HVAC systems did not appear to converge
   **   ~~~   ** Air System Named = CENTRAL SYSTEM did not converge for mass flow rate
   **   ~~~   ** Check values should be zero. Most Recent values listed first.
   **   ~~~   ** Demand-to-Supply interface mass flow rate check value iteration history trace: 0.142905,0.142905,0.142905,0.142905,0.142905,0.142905,0.142905,0.142905,0.142905,0.142905,
   **   ~~~   ** Supply-to-demand interface deck 1 mass flow rate check value iteration history trace: 0.142905,0.142905,0.142905,0.142905,0.142905,0.142905,0.142905,0.142905,0.142905,0.142905,
   **   ~~~   ** Air System Named = CENTRAL SYSTEM did not converge for energy
   **   ~~~   ** Check values should be zero. Most Recent values listed first.
   **   ~~~   ** Demand-to-Supply interface energy check value iteration history trace: 3447.979257,3447.979258,3447.979258,3447.979258,3447.979259,3447.979259,3447.979259,3447.979259,3447.979260,3447.979260,
   **   ~~~   ** Supply-to-demand interface deck 1 energy check value iteration history trace: 1857.955913,1857.955913,1857.955914,1857.955914,1857.955914,1857.955914,1857.955914,1857.955914,1857.955915,1857.955915,
   ** Warning ** SimHVAC: Maximum iterations (20) exceeded for all HVAC loops, at ANNUAL, 04/28 21:45 - 22:00
   **   ~~~   ** The solution for one or more of the Air Loop HVAC systems did not appear to converge
   **   ~~~   ** Air System Named = CENTRAL SYSTEM did not converge for mass flow rate
   **   ~~~   ** Check values should be zero. Most Recent values listed first.
   **   ~~~   ** Demand-to-Supply interface mass flow rate check value iteration history trace: 0.100045,0.100045,0.100045,0.100045,0.100045,0.100045,0.100045,0.100045,0.100045,0.100045,
   **   ~~~   ** Supply-to-demand interface deck 1 mass flow rate check value iteration history trace: 0.100045,0.100045,0.100045,0.100045,0.100045,0.100045,0.100045,0.100045,0.100045,0.100045,
   **   ~~~   ** Air System Named = CENTRAL SYSTEM did not converge for energy
   **   ~~~   ** Check values should be zero. Most Recent values listed first.
   **   ~~~   ** Demand-to-Supply interface energy check value iteration history trace: 2410.132031,2410.132031,2410.132032,2410.132032,2410.132032,2410.132032,2410.132032,2410.132032,2410.132032,2410.132033,
   **   ~~~   ** Supply-to-demand interface deck 1 energy check value iteration history trace: 993.994045,993.994045,993.994045,993.994045,993.994045,993.994045,993.994045,993.994045,993.994045,993.994045,
   ** Warning ** SimHVAC: Maximum iterations (20) exceeded for all HVAC loops, at ANNUAL, 11/03 10:00 - 10:15
   **   ~~~   ** The solution for one or more of the Air Loop HVAC systems did not appear to converge
   **   ~~~   ** Air System Named = CENTRAL SYSTEM did not converge for mass flow rate
   **   ~~~   ** Check values should be zero. Most Recent values listed first.
   **   ~~~   ** Demand-to-Supply interface mass flow rate check value iteration history trace: 0.166029,0.166029,0.166029,0.166029,0.166029,0.166029,0.166029,0.166029,0.166029,0.166029,
   **   ~~~   ** Supply-to-demand interface deck 1 mass flow rate check value iteration history trace: 0.166029,0.166029,0.166029,0.166029,0.166029,0.166029,0.166029,0.166029,0.166029,0.166029,
   **   ~~~   ** Air System Named = CENTRAL SYSTEM did not converge for energy
   **   ~~~   ** Check values should be zero. Most Recent values listed first.
   **   ~~~   ** Demand-to-Supply interface energy check value iteration history trace: 3964.893115,3964.893116,3964.893116,3964.893116,3964.893116,3964.893117,3964.893117,3964.893117,3964.893117,3964.893118,
   **   ~~~   ** Supply-to-demand interface deck 1 energy check value iteration history trace: 2202.359220,2202.359220,2202.359220,2202.359220,2202.359220,2202.359221,2202.359221,2202.359221,2202.359221,2202.359221,
   ** Warning ** SimHVAC: Maximum iterations (20) exceeded for all HVAC loops, at ANNUAL, 11/11 09:00 - 09:15
   **   ~~~   ** The solution for one or more of the Air Loop HVAC systems did not appear to converge
   **   ~~~   ** Air System Named = CENTRAL SYSTEM did not converge for mass flow rate
   **   ~~~   ** Check values should be zero. Most Recent values listed first.
   **   ~~~   ** Demand-to-Supply interface mass flow rate check value iteration history trace: 3.873009E-002,3.873009E-002,3.873009E-002,3.873009E-002,3.873009E-002,3.873009E-002,3.873009E-002,3.873009E-002,3.873009E-002,3.873009E-002,
   **   ~~~   ** Supply-to-demand interface deck 1 mass flow rate check value iteration history trace: 3.873009E-002,3.873009E-002,3.873009E-002,3.873009E-002,3.873009E-002,3.873009E-002,3.873009E-002,3.873009E-002,3.873009E-002,3.873009E-002,
   **   ~~~   ** Air System Named = CENTRAL SYSTEM did not converge for energy
   **   ~~~   ** Check values should be zero. Most Recent values listed first.
   **   ~~~   ** Demand-to-Supply interface energy check value iteration history trace: 910.376085,910.376086,910.376086,910.376086,910.376086,910.376087,910.376087,910.376087,910.376087,910.376088,
   **   ~~~   ** Supply-to-demand interface deck 1 energy check value iteration history trace: 486.294556,486.294556,486.294557,486.294557,486.294557,486.294557,486.294557,486.294557,486.294557,486.294557,
   ** Warning ** SimHVAC: Maximum iterations (20) exceeded for all HVAC loops, at ANNUAL, 11/16 04:45 - 05:00
   **   ~~~   ** The solution for one or more of the Air Loop HVAC systems did not appear to converge
   **   ~~~   ** Air System Named = CENTRAL SYSTEM did not converge for mass flow rate
   **   ~~~   ** Check values should be zero. Most Recent values listed first.
   **   ~~~   ** Demand-to-Supply interface mass flow rate check value iteration history trace: 3.688948E-002,3.688948E-002,3.688948E-002,3.688948E-002,3.688948E-002,3.688948E-002,3.688948E-002,3.688948E-002,3.688948E-002,3.688948E-002,
   **   ~~~   ** Supply-to-demand interface deck 1 mass flow rate check value iteration history trace: 3.688948E-002,3.688948E-002,3.688948E-002,3.688948E-002,3.688948E-002,3.688948E-002,3.688948E-002,3.688948E-002,3.688948E-002,3.688948E-002,
   **   ~~~   ** Air System Named = CENTRAL SYSTEM did not converge for energy
   **   ~~~   ** Check values should be zero. Most Recent values listed first.
   **   ~~~   ** Demand-to-Supply interface energy check value iteration history trace: 690.572461,690.572461,690.572461,690.572461,690.572461,690.572461,690.572461,690.572461,690.572461,690.572461,
   **   ~~~   ** Supply-to-demand interface deck 1 energy check value iteration history trace: 1290.149203,1290.149203,1290.149203,1290.149203,1290.149203,1290.149203,1290.149203,1290.149203,1290.149203,1290.149203,
   ** Warning ** SimHVAC: Maximum iterations (20) exceeded for all HVAC loops, at ANNUAL, 12/07 20:30 - 20:38
   **   ~~~   ** The solution for one or more of the Air Loop HVAC systems did not appear to converge
   **   ~~~   ** Air System Named = CENTRAL SYSTEM did not converge for mass flow rate
   **   ~~~   ** Check values should be zero. Most Recent values listed first.
   **   ~~~   ** Demand-to-Supply interface mass flow rate check value iteration history trace: 3.039759E-002,3.039759E-002,3.039759E-002,3.039759E-002,3.039759E-002,3.039759E-002,3.039759E-002,3.039759E-002,3.039759E-002,3.039759E-002,
   **   ~~~   ** Supply-to-demand interface deck 1 mass flow rate check value iteration history trace: 3.039759E-002,3.039759E-002,3.039759E-002,3.039759E-002,3.039759E-002,3.039759E-002,3.039759E-002,3.039759E-002,3.039759E-002,3.039759E-002,
   **   ~~~   ** Air System Named = CENTRAL SYSTEM did not converge for energy
   **   ~~~   ** Check values should be zero. Most Recent values listed first.
   **   ~~~   ** Demand-to-Supply interface energy check value iteration history trace: 602.396245,602.396245,602.396245,602.396245,602.396245,602.396245,602.396245,602.396245,602.396245,602.396245,
   **   ~~~   ** Supply-to-demand interface deck 1 energy check value iteration history trace: 896.718541,896.718541,896.718541,896.718540,896.718540,896.718540,896.718540,896.718540,896.718540,896.718540,
   ** Warning ** SimHVAC: Maximum iterations (20) exceeded for all HVAC loops, at ANNUAL, 12/18 14:45 - 14:52
   **   ~~~   ** The solution for one or more of the Air Loop HVAC systems did not appear to converge
   **   ~~~   ** Air System Named = CENTRAL SYSTEM did not converge for mass flow rate
   **   ~~~   ** Check values should be zero. Most Recent values listed first.
   **   ~~~   ** Demand-to-Supply interface mass flow rate check value iteration history trace: 6.694777E-002,6.694777E-002,6.694777E-002,6.694777E-002,6.694777E-002,6.694777E-002,6.694777E-002,6.694777E-002,6.694777E-002,6.694777E-002,
   **   ~~~   ** Supply-to-demand interface deck 1 mass flow rate check value iteration history trace: 6.694777E-002,6.694777E-002,6.694777E-002,6.694777E-002,6.694777E-002,6.694777E-002,6.694777E-002,6.694777E-002,6.694777E-002,6.694777E-002,
   **   ~~~   ** Air System Named = CENTRAL SYSTEM did not converge for energy
   **   ~~~   ** Check values should be zero. Most Recent values listed first.
   **   ~~~   ** Demand-to-Supply interface energy check value iteration history trace: 1326.662310,1326.662310,1326.662310,1326.662310,1326.662310,1326.662310,1326.662310,1326.662310,1326.662309,1326.662309,
   **   ~~~   ** Supply-to-demand interface deck 1 energy check value iteration history trace: 2281.770061,2281.770061,2281.770061,2281.770061,2281.770061,2281.770061,2281.770060,2281.770060,2281.770060,2281.770060,
   ** Warning ** SimHVAC: Maximum iterations (20) exceeded for all HVAC loops, at ANNUAL, 12/21 20:00 - 20:08
   **   ~~~   ** The solution for one or more of the Air Loop HVAC systems did not appear to converge
   **   ~~~   ** Air System Named = CENTRAL SYSTEM did not converge for mass flow rate
   **   ~~~   ** Check values should be zero. Most Recent values listed first.
   **   ~~~   ** Demand-to-Supply interface mass flow rate check value iteration history trace: 6.328615E-002,6.328615E-002,6.328615E-002,6.328615E-002,6.328615E-002,6.328615E-002,6.328615E-002,6.328615E-002,6.328615E-002,6.328615E-002,
   **   ~~~   ** Supply-to-demand interface deck 1 mass flow rate check value iteration history trace: 6.328615E-002,6.328615E-002,6.328615E-002,6.328615E-002,6.328615E-002,6.328615E-002,6.328615E-002,6.328615E-002,6.328615E-002,6.328615E-002,
   **   ~~~   ** Air System Named = CENTRAL SYSTEM did not converge for energy
   **   ~~~   ** Check values should be zero. Most Recent values listed first.
   **   ~~~   ** Demand-to-Supply interface energy check value iteration history trace: 1253.144038,1253.144038,1253.144038,1253.144038,1253.144038,1253.144038,1253.144038,1253.144038,1253.144038,1253.144038,
   **   ~~~   ** Supply-to-demand interface deck 1 energy check value iteration history trace: 2168.476326,2168.476326,2168.476325,2168.476325,2168.476325,2168.476325,2168.476325,2168.476325,2168.476325,2168.476325,
   ** Warning ** SimHVAC: Maximum iterations (20) exceeded for all HVAC loops, at ANNUAL, 12/30 08:45 - 08:52
   **   ~~~   ** The solution for one or more of the Air Loop HVAC systems did not appear to converge
   **   ~~~   ** Air System Named = CENTRAL SYSTEM did not converge for mass flow rate
   **   ~~~   ** Check values should be zero. Most Recent values listed first.
   **   ~~~   ** Demand-to-Supply interface mass flow rate check value iteration history trace: 5.371916E-002,5.371916E-002,5.371916E-002,5.371916E-002,5.371916E-002,5.371916E-002,5.371916E-002,5.371916E-002,5.371916E-002,5.371916E-002,
   **   ~~~   ** Supply-to-demand interface deck 1 mass flow rate check value iteration history trace: 5.371916E-002,5.371916E-002,5.371916E-002,5.371916E-002,5.371916E-002,5.371916E-002,5.371916E-002,5.371916E-002,5.371916E-002,5.371916E-002,
   **   ~~~   ** Air System Named = CENTRAL SYSTEM did not converge for energy
   **   ~~~   ** Check values should be zero. Most Recent values listed first.
   **   ~~~   ** Demand-to-Supply interface energy check value iteration history trace: 1064.515189,1064.515189,1064.515189,1064.515189,1064.515189,1064.515189,1064.515188,1064.515188,1064.515188,1064.515188,
   **   ~~~   ** Supply-to-demand interface deck 1 energy check value iteration history trace: 1979.669364,1979.669364,1979.669364,1979.669363,1979.669363,1979.669363,1979.669362,1979.669362,1979.669362,1979.669362,
   **   ~~~   ** Node named ZONE INLET NODE shows oscillating temperatures across iterations with a repeated value of 36.674556
   **   ~~~   ** Node named ZONE INLET NODE temperature [C] iteration history trace (most recent first): 36.674556,36.674556,36.674556,36.674556,36.674555,36.674555,36.674555,36.674555,36.674554,36.674554,
   ************* Simulation Error Summary *************
   ** Warning ** The following Report Variables were requested but not generated -- check.rdd file
   **   ~~~   ** Either the IDF did not contain these elements, the variable name is misspelled,
   **   ~~~   ** or the requested variable is an advanced output which requires Output : Diagnostics, DisplayAdvancedReportVariables;
   ************* Key=*, VarName=BASEBOARD TOTAL HEATING ENERGY, Frequency=
   ************* Key=*, VarName=WATER HEATER NATURALGAS ENERGY, Frequency=
   ************* Key=*, VarName=COOLING COIL TOTAL HEATING ENERGY, Frequency=
   ************* There are 34 unused schedules in input.
   ************* There are 388 unused week schedules in input.
   ************* There are 396 unused day schedules in input.
   ************* Use Output:Diagnostics,DisplayUnusedSchedules; to see them.
   *************
   ************* ===== Recurring Error Summary =====
   ************* The following recurring error messages occurred.
   *************
   *************  ** Warning ** "TOTAL HOT WATER LOAD" - Target water temperature should be less than or equal to the hot water temperature error continues...
   *************  **   ~~~   **   This error occurred 125595 total times;
   *************  **   ~~~   **   during Warmup 0 times;
   *************  **   ~~~   **   during Sizing 0 times.
   *************  **   ~~~   **   Max=9.972607  Min=8.148449E-005
   *************
   *************  ** Warning ** Temperature out of range [-100. to 200.] (PsyPsatFnTemp)
   *************  **   ~~~   **   This error occurred 2 total times;
   *************  **   ~~~   **   during Warmup 0 times;
   *************  **   ~~~   **   during Sizing 0 times.
   *************  **   ~~~   **   Max=-103.308792 C  Min=-3911.73645 C
   *************
   *************
   ************* ===== Final Error Summary =====
   ************* The following error categories occurred.  Consider correcting or noting.
   ************* Nominally Unused Constructions
   ************* ..The nominally unused constructions warning is provided to alert you to potential conditions that can cause
   ************* ..extra time during simulation. Each construction is calculated by the algorithm indicated in the HeatBalanceAlgorithm
   ************* ..object. You may remove the constructions indicated (when you use the DisplayExtraWarnings option).
   *************
   ************* EnergyPlus Warmup Error Summary. During Warmup: 1 Warning; 0 Severe Errors.
   ************* EnergyPlus Sizing Error Summary. During Sizing: 4 Warning; 0 Severe Errors.
   ************* EnergyPlus Completed Successfully-- 125629 Warning; 0 Severe Errors; Elapsed Time=00hr 01min 33.02sec
