Program Version,EnergyPlus, Version 22.2.0-c249759bad, YMD=2023.09.01 15:14,
   ************* Beginning Zone Sizing Calculations
   ** Warning ** ProcessScheduleInput: Schedule:Constant="ALWAYS ON DISCRETE", Schedule Type Limits Name="ONOFF" not found -- will not be validated
   ** Warning ** Foundation:Kiva="KIVA FOUNDATION", no Interior Horizontal Insulation Material Name defined
   **   ~~~   ** Interior Horizontal Insulation Depth will not be used.
   ** Warning ** CheckUsedConstructions: There are 15 nominally unused constructions in input.
   **   ~~~   ** Each Unused construction is shown.
   ************* Construction=INTERIOR FLOOR
   ************* Construction=INTERIOR WINDOW
   ************* Construction=EXTERIOR DOOR
   ************* Construction=INTERIOR DOOR
   ************* Construction=GABLE CONSTRUCTION
   ************* Construction=CRAWL_FLOOR
   ************* Construction=INSULATED PIPE
   ************* Construction=PLAIN PIPE
   ************* Construction=TDD PIPE
   ************* Construction=TDD DOME
   ************* Construction=TDD DIFFUSER
   ************* Construction=CRAWL WALL
   ************* Construction=CEILING-FLOOR-LAYER
   ************* Construction=SLAB CONSTRUCTION W FULL R10 INSULATION
   ************* Construction=SLAB CONSTRUCTION W FULL R5 INSULATION
   ** Warning ** GetDXCoils: Coil:Heating:DX:SingleSpeed="DX_HEATING_COIL" curve values
   **   ~~~   ** ... Defrost Energy Input Ratio Function of Temperature Curve Name = DEFROSTEIR output is not equal to 1.0 (+ or - 10%) at rated conditions.
   **   ~~~   ** ... Curve output at rated conditions = 0.152
   ************* Beginning System Sizing Calculations
   ************* Beginning Plant Sizing Calculations
   ** Warning ** Coil:WaterHeating:AirToWaterHeatPump:Wrapped "HEAT PUMP WATER HEATER EVAPORATOR": Rated air volume flow rate per watt of rated total water heating capacity is out of range
   **   ~~~   ** Min Rated Vol Flow Per Watt=[4.027E-005], Rated Vol Flow Per Watt=[1.386E-004], Max Rated Vol Flow Per Watt=[8.056E-005]. See Input-Output Reference Manual for valid range.
   ** Warning ** Water heater = WATER HEATER TANK:  Recovery Efficiency and Energy Factor could not be calculated during the test for standard ratings
   **   ~~~   ** Setpoint was never recovered and/or heater never turned on
   ** Warning ** Check input. Pump nominal power or motor efficiency is set to 0, for pump=MAINS PRESSURE
   ** Warning ** Output:Meter: invalid Key Name="ELECTRIC_RANGE:INTERIOREQUIPMENT:ELECTRICITY" - not found.
   ** Warning ** Output:Meter: invalid Key Name="ELECTRIC_DRYER:INTERIOREQUIPMENT:ELECTRICITY" - not found.
   ** Warning ** Output:Meter: invalid Key Name="HEATRECOVERY:ELECTRICITY" - not found.
   ** Warning ** Output:Meter: invalid Key Name="HEATING:NATURALGAS" - not found.
   ** Warning ** Output:Meter: invalid Key Name="WATERSYSTEMS:NATURALGAS" - not found.
   ** Warning ** Output:Meter: invalid Key Name="PROPANE:FACILITY" - not found.
   ** Warning ** Output:Meter: invalid Key Name="HEATING:PROPANE" - not found.
   ************* Testing Individual Branch Integrity
   ************* All Branches passed integrity testing
   ************* Testing Individual Supply Air Path Integrity
   ************* All Supply Air Paths passed integrity testing
   ************* Testing Individual Return Air Path Integrity
   ************* All Return Air Paths passed integrity testing
   ************* No node connection errors were found.
   ************* Beginning Simulation
   ** Warning ** AirflowNetwork::Solver::validate_distribution: Heat pump water heater is simulated along with an AirflowNetwork but is not included in the AirflowNetwork.
   ** Warning ** CalcEquipmentFlowRates: "TOTAL HOT WATER LOAD" - Target water temperature is greater than the hot water temperature by (1.65 C)
   **   ~~~   **  Environment=EXTREME_WINTER, at Simulation time=01/27 06:00 - 06:15
   **   ~~~   ** ...target water temperature     = 53.33 C
   **   ~~~   ** ...hot water temperature        = 51.69 C
   **   ~~~   ** ...Target water temperature should be less than or equal to the hot water temperature. Verify temperature setpoints and schedules.
   ** Warning ** SimHVAC: Maximum iterations (20) exceeded for all HVAC loops, at ANNUAL, 03/12 12:38 - 12:45
   **   ~~~   ** The solution for one or more of the Air Loop HVAC systems did not appear to converge
   **   ~~~   ** Air System Named = CENTRAL SYSTEM did not converge for mass flow rate
   **   ~~~   ** Check values should be zero. Most Recent values listed first.
   **   ~~~   ** Demand-to-Supply interface mass flow rate check value iteration history trace: 7.576636E-002,7.576636E-002,7.576636E-002,7.576636E-002,7.576636E-002,7.576636E-002,7.576636E-002,7.576636E-002,7.576636E-002,7.576636E-002,
   **   ~~~   ** Supply-to-demand interface deck 1 mass flow rate check value iteration history trace: 7.576636E-002,7.576636E-002,7.576636E-002,7.576636E-002,7.576636E-002,7.576636E-002,7.576636E-002,7.576636E-002,7.576636E-002,7.576636E-002,
   **   ~~~   ** Air System Named = CENTRAL SYSTEM did not converge for energy
   **   ~~~   ** Check values should be zero. Most Recent values listed first.
   **   ~~~   ** Demand-to-Supply interface energy check value iteration history trace: 1488.684862,1488.684862,1488.684862,1488.684862,1488.684862,1488.684862,1488.684862,1488.684862,1488.684862,1488.684861,
   **   ~~~   ** Supply-to-demand interface deck 1 energy check value iteration history trace: 2340.609583,2340.609583,2340.609582,2340.609582,2340.609582,2340.609582,2340.609582,2340.609582,2340.609582,2340.609581,
   ** Warning ** SimHVAC: Maximum iterations (20) exceeded for all HVAC loops, at ANNUAL, 03/22 16:15 - 16:30
   **   ~~~   ** The solution for one or more of the Air Loop HVAC systems did not appear to converge
   **   ~~~   ** Air System Named = CENTRAL SYSTEM did not converge for mass flow rate
   **   ~~~   ** Check values should be zero. Most Recent values listed first.
   **   ~~~   ** Demand-to-Supply interface mass flow rate check value iteration history trace: 5.351847E-002,5.351847E-002,5.351847E-002,5.351847E-002,5.351847E-002,5.351847E-002,5.351847E-002,5.351847E-002,5.351847E-002,5.351847E-002,
   **   ~~~   ** Supply-to-demand interface deck 1 mass flow rate check value iteration history trace: 5.351847E-002,5.351847E-002,5.351847E-002,5.351847E-002,5.351847E-002,5.351847E-002,5.351847E-002,5.351847E-002,5.351847E-002,5.351847E-002,
   **   ~~~   ** Air System Named = CENTRAL SYSTEM did not converge for energy
   **   ~~~   ** Check values should be zero. Most Recent values listed first.
   **   ~~~   ** Demand-to-Supply interface energy check value iteration history trace: 1059.668412,1059.668412,1059.668412,1059.668412,1059.668411,1059.668411,1059.668411,1059.668411,1059.668411,1059.668411,
   **   ~~~   ** Supply-to-demand interface deck 1 energy check value iteration history trace: 1815.420908,1815.420908,1815.420908,1815.420908,1815.420908,1815.420908,1815.420908,1815.420907,1815.420907,1815.420907,
   ** Warning ** SimHVAC: Maximum iterations (20) exceeded for all HVAC loops, at ANNUAL, 03/22 16:23 - 16:30
   **   ~~~   ** The solution for one or more of the Air Loop HVAC systems did not appear to converge
   **   ~~~   ** Air System Named = CENTRAL SYSTEM did not converge for mass flow rate
   **   ~~~   ** Check values should be zero. Most Recent values listed first.
   **   ~~~   ** Demand-to-Supply interface mass flow rate check value iteration history trace: 3.525686E-002,3.525686E-002,3.525686E-002,3.525686E-002,3.525686E-002,3.525686E-002,3.525686E-002,3.525686E-002,3.525686E-002,3.525686E-002,
   **   ~~~   ** Supply-to-demand interface deck 1 mass flow rate check value iteration history trace: 3.525686E-002,3.525686E-002,3.525686E-002,3.525686E-002,3.525686E-002,3.525686E-002,3.525686E-002,3.525686E-002,3.525686E-002,3.525686E-002,
   **   ~~~   ** Air System Named = CENTRAL SYSTEM did not converge for energy
   **   ~~~   ** Check values should be zero. Most Recent values listed first.
   **   ~~~   ** Demand-to-Supply interface energy check value iteration history trace: 698.542833,698.542833,698.542833,698.542833,698.542833,698.542833,698.542833,698.542833,698.542833,698.542833,
   **   ~~~   ** Supply-to-demand interface deck 1 energy check value iteration history trace: 1196.446026,1196.446026,1196.446026,1196.446026,1196.446026,1196.446026,1196.446025,1196.446025,1196.446025,1196.446025,
   ** Warning ** SimHVAC: Maximum iterations (20) exceeded for all HVAC loops, at ANNUAL, 03/26 11:00 - 11:15
   **   ~~~   ** The solution for one or more of the Air Loop HVAC systems did not appear to converge
   **   ~~~   ** Air System Named = CENTRAL SYSTEM did not converge for mass flow rate
   **   ~~~   ** Check values should be zero. Most Recent values listed first.
   **   ~~~   ** Demand-to-Supply interface mass flow rate check value iteration history trace: 7.857004E-002,7.857004E-002,7.857004E-002,7.857004E-002,7.857004E-002,7.857004E-002,7.857004E-002,7.857004E-002,7.857004E-002,7.857004E-002,
   **   ~~~   ** Supply-to-demand interface deck 1 mass flow rate check value iteration history trace: 7.857004E-002,7.857004E-002,7.857004E-002,7.857004E-002,7.857004E-002,7.857004E-002,7.857004E-002,7.857004E-002,7.857004E-002,7.857004E-002,
   **   ~~~   ** Air System Named = CENTRAL SYSTEM did not converge for energy
   **   ~~~   ** Check values should be zero. Most Recent values listed first.
   **   ~~~   ** Demand-to-Supply interface energy check value iteration history trace: 1557.856672,1557.856672,1557.856672,1557.856672,1557.856672,1557.856672,1557.856671,1557.856671,1557.856671,1557.856671,
   **   ~~~   ** Supply-to-demand interface deck 1 energy check value iteration history trace: 2681.581922,2681.581922,2681.581922,2681.581922,2681.581921,2681.581921,2681.581921,2681.581921,2681.581921,2681.581921,
   ** Warning ** SimHVAC: Maximum iterations (20) exceeded for all HVAC loops, at ANNUAL, 03/26 12:45 - 13:00
   **   ~~~   ** The solution for one or more of the Air Loop HVAC systems did not appear to converge
   **   ~~~   ** Air System Named = CENTRAL SYSTEM did not converge for mass flow rate
   **   ~~~   ** Check values should be zero. Most Recent values listed first.
   **   ~~~   ** Demand-to-Supply interface mass flow rate check value iteration history trace: 6.021928E-002,6.021928E-002,6.021928E-002,6.021928E-002,6.021928E-002,6.021928E-002,6.021928E-002,6.021928E-002,6.021928E-002,6.021928E-002,
   **   ~~~   ** Supply-to-demand interface deck 1 mass flow rate check value iteration history trace: 6.021928E-002,6.021928E-002,6.021928E-002,6.021928E-002,6.021928E-002,6.021928E-002,6.021928E-002,6.021928E-002,6.021928E-002,6.021928E-002,
   **   ~~~   ** Air System Named = CENTRAL SYSTEM did not converge for energy
   **   ~~~   ** Check values should be zero. Most Recent values listed first.
   **   ~~~   ** Demand-to-Supply interface energy check value iteration history trace: 1194.317988,1194.317988,1194.317988,1194.317988,1194.317988,1194.317988,1194.317987,1194.317987,1194.317987,1194.317987,
   **   ~~~   ** Supply-to-demand interface deck 1 energy check value iteration history trace: 2048.904558,2048.904558,2048.904558,2048.904558,2048.904557,2048.904557,2048.904557,2048.904557,2048.904557,2048.904557,
   ** Warning ** SimHVAC: Maximum iterations (20) exceeded for all HVAC loops, at ANNUAL, 04/09 09:23 - 09:30
   **   ~~~   ** The solution for one or more of the Air Loop HVAC systems did not appear to converge
   **   ~~~   ** Air System Named = CENTRAL SYSTEM did not converge for mass flow rate
   **   ~~~   ** Check values should be zero. Most Recent values listed first.
   **   ~~~   ** Demand-to-Supply interface mass flow rate check value iteration history trace: 8.464329E-002,8.464329E-002,8.464329E-002,8.464329E-002,8.464329E-002,8.464329E-002,8.464329E-002,8.464329E-002,8.464329E-002,8.464329E-002,
   **   ~~~   ** Supply-to-demand interface deck 1 mass flow rate check value iteration history trace: 8.464329E-002,8.464329E-002,8.464329E-002,8.464329E-002,8.464329E-002,8.464329E-002,8.464329E-002,8.464329E-002,8.464329E-002,8.464329E-002,
   **   ~~~   ** Air System Named = CENTRAL SYSTEM did not converge for energy
   **   ~~~   ** Check values should be zero. Most Recent values listed first.
   **   ~~~   ** Demand-to-Supply interface energy check value iteration history trace: 1658.691843,1658.691843,1658.691843,1658.691842,1658.691842,1658.691842,1658.691842,1658.691842,1658.691842,1658.691842,
   **   ~~~   ** Supply-to-demand interface deck 1 energy check value iteration history trace: 2943.117757,2943.117757,2943.117757,2943.117757,2943.117756,2943.117756,2943.117756,2943.117756,2943.117756,2943.117756,
   ** Warning ** SimHVAC: Maximum iterations (20) exceeded for all HVAC loops, at ANNUAL, 04/22 08:00 - 08:03
   **   ~~~   ** The solution for one or more of the Air Loop HVAC systems did not appear to converge
   **   ~~~   ** Air System Named = CENTRAL SYSTEM did not converge for mass flow rate
   **   ~~~   ** Check values should be zero. Most Recent values listed first.
   **   ~~~   ** Demand-to-Supply interface mass flow rate check value iteration history trace: 6.172496E-002,6.172496E-002,6.172496E-002,6.172496E-002,6.172496E-002,6.172496E-002,6.172496E-002,6.172496E-002,6.172496E-002,6.172496E-002,
   **   ~~~   ** Supply-to-demand interface deck 1 mass flow rate check value iteration history trace: 6.172496E-002,6.172496E-002,6.172496E-002,6.172496E-002,6.172496E-002,6.172496E-002,6.172496E-002,6.172496E-002,6.172496E-002,6.172496E-002,
   **   ~~~   ** Air System Named = CENTRAL SYSTEM did not converge for energy
   **   ~~~   ** Check values should be zero. Most Recent values listed first.
   **   ~~~   ** Demand-to-Supply interface energy check value iteration history trace: 1221.304724,1221.304724,1221.304724,1221.304724,1221.304724,1221.304724,1221.304724,1221.304723,1221.304723,1221.304723,
   **   ~~~   ** Supply-to-demand interface deck 1 energy check value iteration history trace: 2151.704697,2151.704697,2151.704697,2151.704697,2151.704697,2151.704697,2151.704696,2151.704696,2151.704696,2151.704696,
   ** Warning ** SimHVAC: Maximum iterations (20) exceeded for all HVAC loops, at ANNUAL, 05/08 06:38 - 06:41
   **   ~~~   ** The solution for one or more of the Air Loop HVAC systems did not appear to converge
   **   ~~~   ** Air System Named = CENTRAL SYSTEM did not converge for mass flow rate
   **   ~~~   ** Check values should be zero. Most Recent values listed first.
   **   ~~~   ** Demand-to-Supply interface mass flow rate check value iteration history trace: 8.007135E-002,8.007135E-002,8.007135E-002,8.007135E-002,8.007135E-002,8.007135E-002,8.007135E-002,8.007135E-002,8.007135E-002,8.007135E-002,
   **   ~~~   ** Supply-to-demand interface deck 1 mass flow rate check value iteration history trace: 8.007135E-002,8.007135E-002,8.007135E-002,8.007135E-002,8.007135E-002,8.007135E-002,8.007135E-002,8.007135E-002,8.007135E-002,8.007135E-002,
   **   ~~~   ** Air System Named = CENTRAL SYSTEM did not converge for energy
   **   ~~~   ** Check values should be zero. Most Recent values listed first.
   **   ~~~   ** Demand-to-Supply interface energy check value iteration history trace: 1589.956747,1589.956747,1589.956747,1589.956747,1589.956747,1589.956747,1589.956746,1589.956746,1589.956746,1589.956746,
   **   ~~~   ** Supply-to-demand interface deck 1 energy check value iteration history trace: 2791.572249,2791.572248,2791.572248,2791.572248,2791.572248,2791.572248,2791.572248,2791.572248,2791.572248,2791.572248,
   ** Warning ** SimHVAC: Maximum iterations (20) exceeded for all HVAC loops, at ANNUAL, 05/28 21:00 - 21:15
   **   ~~~   ** The solution for one or more of the Air Loop HVAC systems did not appear to converge
   **   ~~~   ** Air System Named = CENTRAL SYSTEM did not converge for mass flow rate
   **   ~~~   ** Check values should be zero. Most Recent values listed first.
   **   ~~~   ** Demand-to-Supply interface mass flow rate check value iteration history trace: 7.337186E-002,7.337186E-002,7.337186E-002,7.337186E-002,7.337186E-002,7.337186E-002,7.337186E-002,7.337186E-002,7.337186E-002,7.337186E-002,
   **   ~~~   ** Supply-to-demand interface deck 1 mass flow rate check value iteration history trace: 7.337186E-002,7.337186E-002,7.337186E-002,7.337186E-002,7.337186E-002,7.337186E-002,7.337186E-002,7.337186E-002,7.337186E-002,7.337186E-002,
   **   ~~~   ** Air System Named = CENTRAL SYSTEM did not converge for energy
   **   ~~~   ** Check values should be zero. Most Recent values listed first.
   **   ~~~   ** Demand-to-Supply interface energy check value iteration history trace: 1440.932045,1440.932045,1440.932045,1440.932045,1440.932045,1440.932045,1440.932045,1440.932045,1440.932045,1440.932045,
   **   ~~~   ** Supply-to-demand interface deck 1 energy check value iteration history trace: 2492.765651,2492.765650,2492.765650,2492.765650,2492.765650,2492.765650,2492.765650,2492.765650,2492.765650,2492.765649,
   ** Warning ** SimHVAC: Maximum iterations (20) exceeded for all HVAC loops, at ANNUAL, 06/07 16:23 - 16:30
   **   ~~~   ** The solution for one or more of the Air Loop HVAC systems did not appear to converge
   **   ~~~   ** Air System Named = CENTRAL SYSTEM did not converge for mass flow rate
   **   ~~~   ** Check values should be zero. Most Recent values listed first.
   **   ~~~   ** Demand-to-Supply interface mass flow rate check value iteration history trace: 0.149307,0.149307,0.149307,0.149307,0.149307,0.149307,0.149307,0.149307,0.149307,0.149307,
   **   ~~~   ** Supply-to-demand interface deck 1 mass flow rate check value iteration history trace: 0.149307,0.149307,0.149307,0.149307,0.149307,0.149307,0.149307,0.149307,0.149307,0.149307,
   **   ~~~   ** Air System Named = CENTRAL SYSTEM did not converge for energy
   **   ~~~   ** Check values should be zero. Most Recent values listed first.
   **   ~~~   ** Demand-to-Supply interface energy check value iteration history trace: 3517.363742,3517.363742,3517.363742,3517.363743,3517.363743,3517.363743,3517.363743,3517.363744,3517.363744,3517.363744,
   **   ~~~   ** Supply-to-demand interface deck 1 energy check value iteration history trace: 1914.510002,1914.510002,1914.510003,1914.510003,1914.510003,1914.510003,1914.510003,1914.510003,1914.510003,1914.510004,
   ** Warning ** SimHVAC: Maximum iterations (20) exceeded for all HVAC loops, at ANNUAL, 06/12 07:15 - 07:30
   **   ~~~   ** The solution for one or more of the Air Loop HVAC systems did not appear to converge
   **   ~~~   ** Air System Named = CENTRAL SYSTEM did not converge for mass flow rate
   **   ~~~   ** Check values should be zero. Most Recent values listed first.
   **   ~~~   ** Demand-to-Supply interface mass flow rate check value iteration history trace: 1.120370E-002,1.120370E-002,1.120370E-002,1.120370E-002,1.120370E-002,1.120370E-002,1.120370E-002,1.120370E-002,1.120370E-002,1.120370E-002,
   **   ~~~   ** Supply-to-demand interface deck 1 mass flow rate check value iteration history trace: 1.120370E-002,1.120370E-002,1.120370E-002,1.120370E-002,1.120370E-002,1.120370E-002,1.120370E-002,1.120370E-002,1.120370E-002,1.120370E-002,
   **   ~~~   ** Air System Named = CENTRAL SYSTEM did not converge for energy
   **   ~~~   ** Check values should be zero. Most Recent values listed first.
   **   ~~~   ** Demand-to-Supply interface energy check value iteration history trace: 262.072441,262.072441,262.072441,262.072441,262.072441,262.072441,262.072441,262.072441,262.072441,262.072441,
   **   ~~~   ** Supply-to-demand interface deck 1 energy check value iteration history trace: 143.299287,143.299287,143.299287,143.299287,143.299287,143.299287,143.299287,143.299287,143.299287,143.299287,
   ** Warning ** SimHVAC: Maximum iterations (20) exceeded for all HVAC loops, at ANNUAL, 06/13 06:53 - 06:56
   **   ~~~   ** The solution for one or more of the Air Loop HVAC systems did not appear to converge
   **   ~~~   ** Air System Named = CENTRAL SYSTEM did not converge for energy
   **   ~~~   ** Check values should be zero. Most Recent values listed first.
   **   ~~~   ** Demand-to-Supply interface energy check value iteration history trace: 118.834993,118.834993,118.834993,118.834993,118.834993,118.834993,118.834993,118.834993,118.834993,118.834993,
   **   ~~~   ** Supply-to-demand interface deck 1 energy check value iteration history trace: 65.143897,65.143897,65.143897,65.143897,65.143897,65.143897,65.143897,65.143897,65.143897,65.143897,
   ** Warning ** SimHVAC: Maximum iterations (20) exceeded for all HVAC loops, at ANNUAL, 06/13 18:53 - 19:00
   **   ~~~   ** The solution for one or more of the Air Loop HVAC systems did not appear to converge
   **   ~~~   ** Air System Named = CENTRAL SYSTEM did not converge for mass flow rate
   **   ~~~   ** Check values should be zero. Most Recent values listed first.
   **   ~~~   ** Demand-to-Supply interface mass flow rate check value iteration history trace: 0.138841,0.138841,0.138841,0.138841,0.138841,0.138841,0.138841,0.138841,0.138841,0.138841,
   **   ~~~   ** Supply-to-demand interface deck 1 mass flow rate check value iteration history trace: 0.138841,0.138841,0.138841,0.138841,0.138841,0.138841,0.138841,0.138841,0.138841,0.138841,
   **   ~~~   ** Air System Named = CENTRAL SYSTEM did not converge for energy
   **   ~~~   ** Check values should be zero. Most Recent values listed first.
   **   ~~~   ** Demand-to-Supply interface energy check value iteration history trace: 3266.935530,3266.935530,3266.935531,3266.935531,3266.935532,3266.935532,3266.935532,3266.935533,3266.935533,3266.935534,
   **   ~~~   ** Supply-to-demand interface deck 1 energy check value iteration history trace: 1691.727438,1691.727438,1691.727439,1691.727439,1691.727439,1691.727439,1691.727440,1691.727440,1691.727440,1691.727440,
   ** Warning ** SimHVAC: Maximum iterations (20) exceeded for all HVAC loops, at ANNUAL, 10/14 19:45 - 20:00
   **   ~~~   ** The solution for one or more of the Air Loop HVAC systems did not appear to converge
   **   ~~~   ** Air System Named = CENTRAL SYSTEM did not converge for mass flow rate
   **   ~~~   ** Check values should be zero. Most Recent values listed first.
   **   ~~~   ** Demand-to-Supply interface mass flow rate check value iteration history trace: 0.116737,0.116737,0.116737,0.116737,0.116737,0.116737,0.116737,0.116737,0.116737,0.116737,
   **   ~~~   ** Supply-to-demand interface deck 1 mass flow rate check value iteration history trace: 0.116737,0.116737,0.116737,0.116737,0.116737,0.116737,0.116737,0.116737,0.116737,0.116737,
   **   ~~~   ** Air System Named = CENTRAL SYSTEM did not converge for energy
   **   ~~~   ** Check values should be zero. Most Recent values listed first.
   **   ~~~   ** Demand-to-Supply interface energy check value iteration history trace: 2786.404988,2786.404988,2786.404988,2786.404988,2786.404988,2786.404988,2786.404989,2786.404989,2786.404989,2786.404989,
   **   ~~~   ** Supply-to-demand interface deck 1 energy check value iteration history trace: 1273.261214,1273.261214,1273.261214,1273.261214,1273.261214,1273.261214,1273.261214,1273.261214,1273.261215,1273.261215,
   ************* Simulation Error Summary *************
   ** Warning ** The following Report Variables were requested but not generated -- check.rdd file
   **   ~~~   ** Either the IDF did not contain these elements, the variable name is misspelled,
   **   ~~~   ** or the requested variable is an advanced output which requires Output : Diagnostics, DisplayAdvancedReportVariables;
   ************* Key=*, VarName=BASEBOARD TOTAL HEATING ENERGY, Frequency=
   ************* Key=*, VarName=WATER HEATER NATURALGAS ENERGY, Frequency=
   ************* Key=*, VarName=COOLING COIL TOTAL HEATING ENERGY, Frequency=
   ************* There are 34 unused schedules in input.
   ************* There are 388 unused week schedules in input.
   ************* There are 396 unused day schedules in input.
   ************* Use Output:Diagnostics,DisplayUnusedSchedules; to see them.
   *************
   ************* ===== Recurring Error Summary =====
   ************* The following recurring error messages occurred.
   *************
   *************  ** Warning ** "TOTAL HOT WATER LOAD" - Target water temperature should be less than or equal to the hot water temperature error continues...
   *************  **   ~~~   **   This error occurred 91963 total times;
   *************  **   ~~~   **   during Warmup 0 times;
   *************  **   ~~~   **   during Sizing 0 times.
   *************  **   ~~~   **   Max=10.207224  Min=4.238116E-006
   *************
   *************  ** Warning ** SimHVAC: Exceeding Maximum iterations for all HVAC loops, during ANNUAL continues
   *************  **   ~~~   **   This error occurred 7 total times;
   *************  **   ~~~   **   during Warmup 0 times;
   *************  **   ~~~   **   during Sizing 0 times.
   *************
   *************
   ************* ===== Final Error Summary =====
   ************* The following error categories occurred.  Consider correcting or noting.
   ************* Nominally Unused Constructions
   ************* ..The nominally unused constructions warning is provided to alert you to potential conditions that can cause
   ************* ..extra time during simulation. Each construction is calculated by the algorithm indicated in the HeatBalanceAlgorithm
   ************* ..object. You may remove the constructions indicated (when you use the DisplayExtraWarnings option).
   *************
   ************* EnergyPlus Warmup Error Summary. During Warmup: 1 Warning; 0 Severe Errors.
   ************* EnergyPlus Sizing Error Summary. During Sizing: 4 Warning; 0 Severe Errors.
   ************* EnergyPlus Completed Successfully-- 92001 Warning; 0 Severe Errors; Elapsed Time=00hr 05min  6.93sec
