Program Version,EnergyPlus, Version 22.2.0-c249759bad, YMD=2023.09.01 19:28,
   ************* Beginning Zone Sizing Calculations
   ** Warning ** ProcessScheduleInput: Schedule:Constant="ALWAYS ON DISCRETE", Schedule Type Limits Name="ONOFF" not found -- will not be validated
   ** Warning ** Foundation:Kiva="KIVA FOUNDATION", no Interior Horizontal Insulation Material Name defined
   **   ~~~   ** Interior Horizontal Insulation Depth will not be used.
   ** Warning ** CheckUsedConstructions: There are 15 nominally unused constructions in input.
   **   ~~~   ** Each Unused construction is shown.
   ************* Construction=INTERIOR FLOOR
   ************* Construction=INTERIOR WINDOW
   ************* Construction=EXTERIOR DOOR
   ************* Construction=INTERIOR DOOR
   ************* Construction=GABLE CONSTRUCTION
   ************* Construction=CRAWL_FLOOR
   ************* Construction=INSULATED PIPE
   ************* Construction=PLAIN PIPE
   ************* Construction=TDD PIPE
   ************* Construction=TDD DOME
   ************* Construction=TDD DIFFUSER
   ************* Construction=CRAWL WALL
   ************* Construction=CEILING-FLOOR-LAYER
   ************* Construction=SLAB CONSTRUCTION W FULL R10 INSULATION
   ************* Construction=SLAB CONSTRUCTION W FULL R5 INSULATION
   ** Warning ** GetDXCoils: Coil:Heating:DX:SingleSpeed="DX_HEATING_COIL" curve values
   **   ~~~   ** ... Defrost Energy Input Ratio Function of Temperature Curve Name = DEFROSTEIR output is not equal to 1.0 (+ or - 10%) at rated conditions.
   **   ~~~   ** ... Curve output at rated conditions = 0.152
   ************* Beginning System Sizing Calculations
   ************* Beginning Plant Sizing Calculations
   ** Warning ** SizeDXCoil Coil:Cooling:DX:SingleSpeed DX_COOLING_COIL
   **   ~~~   ** ...Gross Rated Total Cooling Capacity [W] will be limited by the maximum rated volume flow per rated total capacity ratio.
   **   ~~~   ** ...DX coil volume flow rate ( m3/s ) = 0.503221
   **   ~~~   ** ...Requested capacity ( W ) = 6523.420
   **   ~~~   ** ...Requested flow/capacity ratio ( m3/s/W ) = 7.714E-005
   **   ~~~   ** ...Maximum flow/capacity ratio ( m3/s/W ) = 6.041E-005
   **   ~~~   ** ...Adjusted capacity ( W ) = 8330.110
   ** Warning ** Coil:WaterHeating:AirToWaterHeatPump:Wrapped "HEAT PUMP WATER HEATER EVAPORATOR": Rated air volume flow rate per watt of rated total water heating capacity is out of range
   **   ~~~   ** Min Rated Vol Flow Per Watt=[4.027E-005], Rated Vol Flow Per Watt=[1.510E-004], Max Rated Vol Flow Per Watt=[8.056E-005]. See Input-Output Reference Manual for valid range.
   ************* SizeFan: : Potential issue with equipment sizing for Fan:OnOff HEAT PUMP WATER HEATER FAN
   **   ~~~   ** User-Specified Maximum Flow Rate [m3/s] = 0.22653
   **   ~~~   ** differs from Design Size Maximum Flow Rate [m3/s] = 7.55250E-002
   **   ~~~   ** This may, or may not, indicate mismatched component sizes.
   **   ~~~   ** Verify that the value entered is intended and is consistent with other components.
   ** Warning ** Water heater = WATER HEATER TANK:  Recovery Efficiency and Energy Factor could not be calculated during the test for standard ratings
   **   ~~~   ** Setpoint was never recovered and/or heater never turned on
   ** Warning ** Check input. Pump nominal power or motor efficiency is set to 0, for pump=MAINS PRESSURE
   ** Warning ** Output:Meter: invalid Key Name="ELECTRIC_RANGE:INTERIOREQUIPMENT:ELECTRICITY" - not found.
   ** Warning ** Output:Meter: invalid Key Name="ELECTRIC_DRYER:INTERIOREQUIPMENT:ELECTRICITY" - not found.
   ** Warning ** Output:Meter: invalid Key Name="HEATRECOVERY:ELECTRICITY" - not found.
   ** Warning ** Output:Meter: invalid Key Name="HEATING:NATURALGAS" - not found.
   ** Warning ** Output:Meter: invalid Key Name="WATERSYSTEMS:NATURALGAS" - not found.
   ** Warning ** Output:Meter: invalid Key Name="PROPANE:FACILITY" - not found.
   ** Warning ** Output:Meter: invalid Key Name="HEATING:PROPANE" - not found.
   ************* Testing Individual Branch Integrity
   ************* All Branches passed integrity testing
   ************* Testing Individual Supply Air Path Integrity
   ************* All Supply Air Paths passed integrity testing
   ************* Testing Individual Return Air Path Integrity
   ************* All Return Air Paths passed integrity testing
   ************* No node connection errors were found.
   ************* Beginning Simulation
   ** Warning ** AirflowNetwork::Solver::validate_distribution: Heat pump water heater is simulated along with an AirflowNetwork but is not included in the AirflowNetwork.
   ** Warning ** CalcEquipmentFlowRates: "TOTAL HOT WATER LOAD" - Target water temperature is greater than the hot water temperature by (1.39 C)
   **   ~~~   **  Environment=EXTREME_WINTER, at Simulation time=12/15 06:00 - 06:15
   **   ~~~   ** ...target water temperature     = 53.33 C
   **   ~~~   ** ...hot water temperature        = 51.94 C
   **   ~~~   ** ...Target water temperature should be less than or equal to the hot water temperature. Verify temperature setpoints and schedules.
   ** Warning ** SimHVAC: Maximum iterations (20) exceeded for all HVAC loops, at ANNUAL, 02/04 16:15 - 16:30
   **   ~~~   ** The solution for one or more of the Air Loop HVAC systems did not appear to converge
   **   ~~~   ** Air System Named = CENTRAL SYSTEM did not converge for mass flow rate
   **   ~~~   ** Check values should be zero. Most Recent values listed first.
   **   ~~~   ** Demand-to-Supply interface mass flow rate check value iteration history trace: 7.230153E-002,7.230153E-002,7.230153E-002,7.230153E-002,7.230153E-002,7.230153E-002,7.230153E-002,7.230153E-002,7.230153E-002,7.230153E-002,
   **   ~~~   ** Supply-to-demand interface deck 1 mass flow rate check value iteration history trace: 7.230153E-002,7.230153E-002,7.230153E-002,7.230153E-002,7.230153E-002,7.230153E-002,7.230153E-002,7.230153E-002,7.230153E-002,7.230153E-002,
   **   ~~~   ** Air System Named = CENTRAL SYSTEM did not converge for energy
   **   ~~~   ** Check values should be zero. Most Recent values listed first.
   **   ~~~   ** Demand-to-Supply interface energy check value iteration history trace: 1433.700060,1433.700060,1433.700059,1433.700059,1433.700059,1433.700059,1433.700059,1433.700059,1433.700059,1433.700059,
   **   ~~~   ** Supply-to-demand interface deck 1 energy check value iteration history trace: 2241.419160,2241.419160,2241.419159,2241.419159,2241.419159,2241.419159,2241.419159,2241.419159,2241.419159,2241.419159,
   ** Warning ** SimHVAC: Maximum iterations (20) exceeded for all HVAC loops, at ANNUAL, 02/16 20:08 - 20:15
   **   ~~~   ** The solution for one or more of the Air Loop HVAC systems did not appear to converge
   **   ~~~   ** Air System Named = CENTRAL SYSTEM did not converge for mass flow rate
   **   ~~~   ** Check values should be zero. Most Recent values listed first.
   **   ~~~   ** Demand-to-Supply interface mass flow rate check value iteration history trace: 9.481554E-002,9.481554E-002,9.481554E-002,9.481554E-002,9.481554E-002,9.481554E-002,9.481554E-002,9.481554E-002,9.481554E-002,9.481554E-002,
   **   ~~~   ** Supply-to-demand interface deck 1 mass flow rate check value iteration history trace: 9.481554E-002,9.481554E-002,9.481554E-002,9.481554E-002,9.481554E-002,9.481554E-002,9.481554E-002,9.481554E-002,9.481554E-002,9.481554E-002,
   **   ~~~   ** Air System Named = CENTRAL SYSTEM did not converge for energy
   **   ~~~   ** Check values should be zero. Most Recent values listed first.
   **   ~~~   ** Demand-to-Supply interface energy check value iteration history trace: 1876.987227,1876.987227,1876.987227,1876.987227,1876.987227,1876.987227,1876.987226,1876.987226,1876.987226,1876.987226,
   **   ~~~   ** Supply-to-demand interface deck 1 energy check value iteration history trace: 2814.765064,2814.765064,2814.765063,2814.765063,2814.765063,2814.765063,2814.765063,2814.765062,2814.765062,2814.765062,
   ** Warning ** SimHVAC: Maximum iterations (20) exceeded for all HVAC loops, at ANNUAL, 03/05 21:00 - 21:15
   **   ~~~   ** The solution for one or more of the Air Loop HVAC systems did not appear to converge
   **   ~~~   ** Air System Named = CENTRAL SYSTEM did not converge for mass flow rate
   **   ~~~   ** Check values should be zero. Most Recent values listed first.
   **   ~~~   ** Demand-to-Supply interface mass flow rate check value iteration history trace: 5.804656E-002,5.804656E-002,5.804656E-002,5.804656E-002,5.804656E-002,5.804656E-002,5.804656E-002,5.804656E-002,5.804656E-002,5.804656E-002,
   **   ~~~   ** Supply-to-demand interface deck 1 mass flow rate check value iteration history trace: 5.804656E-002,5.804656E-002,5.804656E-002,5.804656E-002,5.804656E-002,5.804656E-002,5.804656E-002,5.804656E-002,5.804656E-002,5.804656E-002,
   **   ~~~   ** Air System Named = CENTRAL SYSTEM did not converge for energy
   **   ~~~   ** Check values should be zero. Most Recent values listed first.
   **   ~~~   ** Demand-to-Supply interface energy check value iteration history trace: 1148.570295,1148.570295,1148.570294,1148.570294,1148.570294,1148.570294,1148.570294,1148.570294,1148.570294,1148.570294,
   **   ~~~   ** Supply-to-demand interface deck 1 energy check value iteration history trace: 2127.771990,2127.771989,2127.771989,2127.771989,2127.771989,2127.771989,2127.771989,2127.771989,2127.771989,2127.771989,
   ** Warning ** SimHVAC: Maximum iterations (20) exceeded for all HVAC loops, at ANNUAL, 03/12 23:15 - 23:30
   **   ~~~   ** The solution for one or more of the Air Loop HVAC systems did not appear to converge
   **   ~~~   ** Air System Named = CENTRAL SYSTEM did not converge for mass flow rate
   **   ~~~   ** Check values should be zero. Most Recent values listed first.
   **   ~~~   ** Demand-to-Supply interface mass flow rate check value iteration history trace: 7.227949E-002,7.227949E-002,7.227949E-002,7.227949E-002,7.227949E-002,7.227949E-002,7.227949E-002,7.227949E-002,7.227949E-002,7.227949E-002,
   **   ~~~   ** Supply-to-demand interface deck 1 mass flow rate check value iteration history trace: 7.227949E-002,7.227949E-002,7.227949E-002,7.227949E-002,7.227949E-002,7.227949E-002,7.227949E-002,7.227949E-002,7.227949E-002,7.227949E-002,
   **   ~~~   ** Air System Named = CENTRAL SYSTEM did not converge for energy
   **   ~~~   ** Check values should be zero. Most Recent values listed first.
   **   ~~~   ** Demand-to-Supply interface energy check value iteration history trace: 1350.571258,1350.571258,1350.571258,1350.571258,1350.571258,1350.571258,1350.571258,1350.571257,1350.571257,1350.571257,
   **   ~~~   ** Supply-to-demand interface deck 1 energy check value iteration history trace: 2111.988306,2111.988306,2111.988306,2111.988306,2111.988306,2111.988306,2111.988306,2111.988306,2111.988306,2111.988305,
   ** Warning ** SimHVAC: Maximum iterations (20) exceeded for all HVAC loops, at ANNUAL, 03/21 10:30 - 10:45
   **   ~~~   ** The solution for one or more of the Air Loop HVAC systems did not appear to converge
   **   ~~~   ** Air System Named = CENTRAL SYSTEM did not converge for mass flow rate
   **   ~~~   ** Check values should be zero. Most Recent values listed first.
   **   ~~~   ** Demand-to-Supply interface mass flow rate check value iteration history trace: 5.758685E-002,5.758685E-002,5.758685E-002,5.758685E-002,5.758685E-002,5.758685E-002,5.758685E-002,5.758685E-002,5.758685E-002,5.758685E-002,
   **   ~~~   ** Supply-to-demand interface deck 1 mass flow rate check value iteration history trace: 5.758685E-002,5.758685E-002,5.758685E-002,5.758685E-002,5.758685E-002,5.758685E-002,5.758685E-002,5.758685E-002,5.758685E-002,5.758685E-002,
   **   ~~~   ** Air System Named = CENTRAL SYSTEM did not converge for energy
   **   ~~~   ** Check values should be zero. Most Recent values listed first.
   **   ~~~   ** Demand-to-Supply interface energy check value iteration history trace: 1140.440353,1140.440353,1140.440353,1140.440353,1140.440353,1140.440353,1140.440353,1140.440353,1140.440353,1140.440352,
   **   ~~~   ** Supply-to-demand interface deck 1 energy check value iteration history trace: 1867.114476,1867.114475,1867.114475,1867.114475,1867.114475,1867.114475,1867.114475,1867.114475,1867.114475,1867.114475,
   ** Warning ** SimHVAC: Maximum iterations (20) exceeded for all HVAC loops, at ANNUAL, 03/28 20:45 - 21:00
   **   ~~~   ** The solution for one or more of the Air Loop HVAC systems did not appear to converge
   **   ~~~   ** Air System Named = CENTRAL SYSTEM did not converge for mass flow rate
   **   ~~~   ** Check values should be zero. Most Recent values listed first.
   **   ~~~   ** Demand-to-Supply interface mass flow rate check value iteration history trace: 5.622732E-002,5.622732E-002,5.622732E-002,5.622732E-002,5.622732E-002,5.622732E-002,5.622732E-002,5.622732E-002,5.622732E-002,5.622732E-002,
   **   ~~~   ** Supply-to-demand interface deck 1 mass flow rate check value iteration history trace: 5.622732E-002,5.622732E-002,5.622732E-002,5.622732E-002,5.622732E-002,5.622732E-002,5.622732E-002,5.622732E-002,5.622732E-002,5.622732E-002,
   **   ~~~   ** Air System Named = CENTRAL SYSTEM did not converge for energy
   **   ~~~   ** Check values should be zero. Most Recent values listed first.
   **   ~~~   ** Demand-to-Supply interface energy check value iteration history trace: 1105.458643,1105.458643,1105.458643,1105.458643,1105.458643,1105.458643,1105.458643,1105.458643,1105.458643,1105.458643,
   **   ~~~   ** Supply-to-demand interface deck 1 energy check value iteration history trace: 2042.171963,2042.171963,2042.171963,2042.171963,2042.171962,2042.171962,2042.171962,2042.171962,2042.171962,2042.171962,
   ** Warning ** SimHVAC: Maximum iterations (20) exceeded for all HVAC loops, at ANNUAL, 04/04 00:30 - 00:35
   **   ~~~   ** The solution for one or more of the Air Loop HVAC systems did not appear to converge
   **   ~~~   ** Air System Named = CENTRAL SYSTEM did not converge for mass flow rate
   **   ~~~   ** Check values should be zero. Most Recent values listed first.
   **   ~~~   ** Demand-to-Supply interface mass flow rate check value iteration history trace: 8.462381E-002,8.462381E-002,8.462381E-002,8.462381E-002,8.462381E-002,8.462381E-002,8.462381E-002,8.462381E-002,8.462381E-002,8.462381E-002,
   **   ~~~   ** Supply-to-demand interface deck 1 mass flow rate check value iteration history trace: 8.462381E-002,8.462381E-002,8.462381E-002,8.462381E-002,8.462381E-002,8.462381E-002,8.462381E-002,8.462381E-002,8.462381E-002,8.462381E-002,
   **   ~~~   ** Air System Named = CENTRAL SYSTEM did not converge for energy
   **   ~~~   ** Check values should be zero. Most Recent values listed first.
   **   ~~~   ** Demand-to-Supply interface energy check value iteration history trace: 1618.488239,1618.488239,1618.488239,1618.488239,1618.488239,1618.488238,1618.488238,1618.488238,1618.488238,1618.488238,
   **   ~~~   ** Supply-to-demand interface deck 1 energy check value iteration history trace: 2505.167794,2505.167794,2505.167794,2505.167794,2505.167794,2505.167793,2505.167793,2505.167793,2505.167793,2505.167793,
   ** Warning ** SimHVAC: Maximum iterations (20) exceeded for all HVAC loops, at ANNUAL, 04/09 09:00 - 09:05
   **   ~~~   ** The solution for one or more of the Air Loop HVAC systems did not appear to converge
   **   ~~~   ** Air System Named = CENTRAL SYSTEM did not converge for mass flow rate
   **   ~~~   ** Check values should be zero. Most Recent values listed first.
   **   ~~~   ** Demand-to-Supply interface mass flow rate check value iteration history trace: 5.291863E-002,5.291863E-002,5.291863E-002,5.291863E-002,5.291863E-002,5.291863E-002,5.291863E-002,5.291863E-002,5.291863E-002,5.291863E-002,
   **   ~~~   ** Supply-to-demand interface deck 1 mass flow rate check value iteration history trace: 5.291863E-002,5.291863E-002,5.291863E-002,5.291863E-002,5.291863E-002,5.291863E-002,5.291863E-002,5.291863E-002,5.291863E-002,5.291863E-002,
   **   ~~~   ** Air System Named = CENTRAL SYSTEM did not converge for energy
   **   ~~~   ** Check values should be zero. Most Recent values listed first.
   **   ~~~   ** Demand-to-Supply interface energy check value iteration history trace: 1039.935862,1039.935862,1039.935862,1039.935862,1039.935862,1039.935862,1039.935862,1039.935862,1039.935862,1039.935862,
   **   ~~~   ** Supply-to-demand interface deck 1 energy check value iteration history trace: 2038.455379,2038.455379,2038.455379,2038.455378,2038.455378,2038.455378,2038.455378,2038.455378,2038.455378,2038.455378,
   ** Warning ** SimHVAC: Maximum iterations (20) exceeded for all HVAC loops, at ANNUAL, 04/26 01:00 - 01:15
   **   ~~~   ** The solution for one or more of the Air Loop HVAC systems did not appear to converge
   **   ~~~   ** Air System Named = CENTRAL SYSTEM did not converge for mass flow rate
   **   ~~~   ** Check values should be zero. Most Recent values listed first.
   **   ~~~   ** Demand-to-Supply interface mass flow rate check value iteration history trace: 6.614791E-002,6.614791E-002,6.614791E-002,6.614791E-002,6.614791E-002,6.614791E-002,6.614791E-002,6.614791E-002,6.614791E-002,6.614791E-002,
   **   ~~~   ** Supply-to-demand interface deck 1 mass flow rate check value iteration history trace: 6.614791E-002,6.614791E-002,6.614791E-002,6.614791E-002,6.614791E-002,6.614791E-002,6.614791E-002,6.614791E-002,6.614791E-002,6.614791E-002,
   **   ~~~   ** Air System Named = CENTRAL SYSTEM did not converge for energy
   **   ~~~   ** Check values should be zero. Most Recent values listed first.
   **   ~~~   ** Demand-to-Supply interface energy check value iteration history trace: 1236.800161,1236.800161,1236.800161,1236.800161,1236.800161,1236.800161,1236.800161,1236.800161,1236.800161,1236.800161,
   **   ~~~   ** Supply-to-demand interface deck 1 energy check value iteration history trace: 1979.023356,1979.023356,1979.023356,1979.023356,1979.023356,1979.023356,1979.023356,1979.023355,1979.023355,1979.023355,
   ** Warning ** SimHVAC: Maximum iterations (20) exceeded for all HVAC loops, at ANNUAL, 05/01 08:30 - 08:35
   **   ~~~   ** The solution for one or more of the Air Loop HVAC systems did not appear to converge
   **   ~~~   ** Air System Named = CENTRAL SYSTEM did not converge for mass flow rate
   **   ~~~   ** Check values should be zero. Most Recent values listed first.
   **   ~~~   ** Demand-to-Supply interface mass flow rate check value iteration history trace: 5.041150E-002,5.041150E-002,5.041150E-002,5.041150E-002,5.041150E-002,5.041150E-002,5.041150E-002,5.041150E-002,5.041150E-002,5.041150E-002,
   **   ~~~   ** Supply-to-demand interface deck 1 mass flow rate check value iteration history trace: 5.041150E-002,5.041150E-002,5.041150E-002,5.041150E-002,5.041150E-002,5.041150E-002,5.041150E-002,5.041150E-002,5.041150E-002,5.041150E-002,
   **   ~~~   ** Air System Named = CENTRAL SYSTEM did not converge for energy
   **   ~~~   ** Check values should be zero. Most Recent values listed first.
   **   ~~~   ** Demand-to-Supply interface energy check value iteration history trace: 998.977553,998.977553,998.977553,998.977553,998.977553,998.977553,998.977553,998.977553,998.977553,998.977552,
   **   ~~~   ** Supply-to-demand interface deck 1 energy check value iteration history trace: 1891.740001,1891.740001,1891.740001,1891.740001,1891.740001,1891.740001,1891.740001,1891.740001,1891.740000,1891.740000,
   ** Warning ** Temperature out of range [-100. to 200.] (PsyPsatFnTemp)
   **   ~~~   **  Routine=PsyTwbFnTdbWPb, Environment=ANNUAL, at Simulation time=05/03 16:15 - 16:22
   **   ~~~   **  Input Temperature=-102.60
   ** Warning ** SimHVAC: Maximum iterations (20) exceeded for all HVAC loops, at ANNUAL, 05/25 08:30 - 08:45
   **   ~~~   ** The solution for one or more of the Air Loop HVAC systems did not appear to converge
   **   ~~~   ** Air System Named = CENTRAL SYSTEM did not converge for mass flow rate
   **   ~~~   ** Check values should be zero. Most Recent values listed first.
   **   ~~~   ** Demand-to-Supply interface mass flow rate check value iteration history trace: 5.358917E-002,5.358917E-002,5.358917E-002,5.358917E-002,5.358917E-002,5.358917E-002,5.358917E-002,5.358917E-002,5.358917E-002,5.358917E-002,
   **   ~~~   ** Supply-to-demand interface deck 1 mass flow rate check value iteration history trace: 5.358917E-002,5.358917E-002,5.358917E-002,5.358917E-002,5.358917E-002,5.358917E-002,5.358917E-002,5.358917E-002,5.358917E-002,5.358917E-002,
   **   ~~~   ** Air System Named = CENTRAL SYSTEM did not converge for energy
   **   ~~~   ** Check values should be zero. Most Recent values listed first.
   **   ~~~   ** Demand-to-Supply interface energy check value iteration history trace: 1061.955757,1061.955757,1061.955757,1061.955757,1061.955757,1061.955757,1061.955757,1061.955757,1061.955757,1061.955757,
   **   ~~~   ** Supply-to-demand interface deck 1 energy check value iteration history trace: 1927.935713,1927.935713,1927.935713,1927.935713,1927.935713,1927.935713,1927.935713,1927.935713,1927.935713,1927.935712,
   ** Warning ** SimHVAC: Maximum iterations (20) exceeded for all HVAC loops, at ANNUAL, 05/27 09:45 - 10:00
   **   ~~~   ** The solution for one or more of the Air Loop HVAC systems did not appear to converge
   **   ~~~   ** Air System Named = CENTRAL SYSTEM did not converge for mass flow rate
   **   ~~~   ** Check values should be zero. Most Recent values listed first.
   **   ~~~   ** Demand-to-Supply interface mass flow rate check value iteration history trace: 5.424436E-002,5.424436E-002,5.424436E-002,5.424436E-002,5.424436E-002,5.424436E-002,5.424436E-002,5.424436E-002,5.424436E-002,5.424436E-002,
   **   ~~~   ** Supply-to-demand interface deck 1 mass flow rate check value iteration history trace: 5.424436E-002,5.424436E-002,5.424436E-002,5.424436E-002,5.424436E-002,5.424436E-002,5.424436E-002,5.424436E-002,5.424436E-002,5.424436E-002,
   **   ~~~   ** Air System Named = CENTRAL SYSTEM did not converge for energy
   **   ~~~   ** Check values should be zero. Most Recent values listed first.
   **   ~~~   ** Demand-to-Supply interface energy check value iteration history trace: 1074.924353,1074.924353,1074.924353,1074.924353,1074.924353,1074.924353,1074.924353,1074.924353,1074.924353,1074.924353,
   **   ~~~   ** Supply-to-demand interface deck 1 energy check value iteration history trace: 1998.328743,1998.328743,1998.328743,1998.328743,1998.328743,1998.328743,1998.328743,1998.328743,1998.328743,1998.328743,
   ** Warning ** SimHVAC: Maximum iterations (20) exceeded for all HVAC loops, at ANNUAL, 05/27 19:15 - 19:30
   **   ~~~   ** The solution for one or more of the Air Loop HVAC systems did not appear to converge
   **   ~~~   ** Air System Named = CENTRAL SYSTEM did not converge for mass flow rate
   **   ~~~   ** Check values should be zero. Most Recent values listed first.
   **   ~~~   ** Demand-to-Supply interface mass flow rate check value iteration history trace: 5.644318E-002,5.644318E-002,5.644318E-002,5.644318E-002,5.644318E-002,5.644318E-002,5.644318E-002,5.644318E-002,5.644318E-002,5.644318E-002,
   **   ~~~   ** Supply-to-demand interface deck 1 mass flow rate check value iteration history trace: 5.644318E-002,5.644318E-002,5.644318E-002,5.644318E-002,5.644318E-002,5.644318E-002,5.644318E-002,5.644318E-002,5.644318E-002,5.644318E-002,
   **   ~~~   ** Air System Named = CENTRAL SYSTEM did not converge for energy
   **   ~~~   ** Check values should be zero. Most Recent values listed first.
   **   ~~~   ** Demand-to-Supply interface energy check value iteration history trace: 1117.013263,1117.013263,1117.013263,1117.013263,1117.013263,1117.013263,1117.013263,1117.013263,1117.013263,1117.013263,
   **   ~~~   ** Supply-to-demand interface deck 1 energy check value iteration history trace: 2003.478079,2003.478079,2003.478079,2003.478079,2003.478079,2003.478079,2003.478079,2003.478078,2003.478078,2003.478078,
   ** Warning ** SimHVAC: Maximum iterations (20) exceeded for all HVAC loops, at ANNUAL, 09/23 11:30 - 11:45
   **   ~~~   ** The solution for one or more of the Air Loop HVAC systems did not appear to converge
   **   ~~~   ** Air System Named = CENTRAL SYSTEM did not converge for mass flow rate
   **   ~~~   ** Check values should be zero. Most Recent values listed first.
   **   ~~~   ** Demand-to-Supply interface mass flow rate check value iteration history trace: 5.796930E-002,5.796930E-002,5.796930E-002,5.796930E-002,5.796930E-002,5.796930E-002,5.796930E-002,5.796930E-002,5.796930E-002,5.796930E-002,
   **   ~~~   ** Supply-to-demand interface deck 1 mass flow rate check value iteration history trace: 5.796930E-002,5.796930E-002,5.796930E-002,5.796930E-002,5.796930E-002,5.796930E-002,5.796930E-002,5.796930E-002,5.796930E-002,5.796930E-002,
   **   ~~~   ** Air System Named = CENTRAL SYSTEM did not converge for energy
   **   ~~~   ** Check values should be zero. Most Recent values listed first.
   **   ~~~   ** Demand-to-Supply interface energy check value iteration history trace: 1379.573562,1379.573562,1379.573562,1379.573562,1379.573563,1379.573563,1379.573563,1379.573563,1379.573563,1379.573564,
   **   ~~~   ** Supply-to-demand interface deck 1 energy check value iteration history trace: 518.312799,518.312799,518.312799,518.312799,518.312799,518.312799,518.312800,518.312800,518.312800,518.312800,
   ************* Simulation Error Summary *************
   ** Warning ** The following Report Variables were requested but not generated -- check.rdd file
   **   ~~~   ** Either the IDF did not contain these elements, the variable name is misspelled,
   **   ~~~   ** or the requested variable is an advanced output which requires Output : Diagnostics, DisplayAdvancedReportVariables;
   ************* Key=*, VarName=BASEBOARD TOTAL HEATING ENERGY, Frequency=
   ************* Key=*, VarName=WATER HEATER NATURALGAS ENERGY, Frequency=
   ************* Key=*, VarName=COOLING COIL TOTAL HEATING ENERGY, Frequency=
   ************* There are 34 unused schedules in input.
   ************* There are 388 unused week schedules in input.
   ************* There are 396 unused day schedules in input.
   ************* Use Output:Diagnostics,DisplayUnusedSchedules; to see them.
   *************
   ************* ===== Recurring Error Summary =====
   ************* The following recurring error messages occurred.
   *************
   *************  ** Warning ** "TOTAL HOT WATER LOAD" - Target water temperature should be less than or equal to the hot water temperature error continues...
   *************  **   ~~~   **   This error occurred 128539 total times;
   *************  **   ~~~   **   during Warmup 0 times;
   *************  **   ~~~   **   during Sizing 0 times.
   *************  **   ~~~   **   Max=10.413737  Min=1.808784E-004
   *************
   *************  ** Warning ** Temperature out of range [-100. to 200.] (PsyPsatFnTemp)
   *************  **   ~~~   **   This error occurred 1 total times;
   *************  **   ~~~   **   during Warmup 0 times;
   *************  **   ~~~   **   during Sizing 0 times.
   *************  **   ~~~   **   Max=-102.603008 C  Min=-102.603008 C
   *************
   *************  ** Warning ** SimHVAC: Exceeding Maximum iterations for all HVAC loops, during ANNUAL continues
   *************  **   ~~~   **   This error occurred 5 total times;
   *************  **   ~~~   **   during Warmup 0 times;
   *************  **   ~~~   **   during Sizing 0 times.
   *************
   *************
   ************* ===== Final Error Summary =====
   ************* The following error categories occurred.  Consider correcting or noting.
   ************* Nominally Unused Constructions
   ************* ..The nominally unused constructions warning is provided to alert you to potential conditions that can cause
   ************* ..extra time during simulation. Each construction is calculated by the algorithm indicated in the HeatBalanceAlgorithm
   ************* ..object. You may remove the constructions indicated (when you use the DisplayExtraWarnings option).
   *************
   ************* EnergyPlus Warmup Error Summary. During Warmup: 1 Warning; 0 Severe Errors.
   ************* EnergyPlus Sizing Error Summary. During Sizing: 4 Warning; 0 Severe Errors.
   ************* EnergyPlus Completed Successfully-- 128577 Warning; 0 Severe Errors; Elapsed Time=00hr 01min 39.48sec
