Program Version,EnergyPlus, Version 22.2.0-c249759bad, YMD=2023.09.01 19:16,
   ************* Beginning Zone Sizing Calculations
   ** Warning ** ProcessScheduleInput: Schedule:Constant="ALWAYS ON DISCRETE", Schedule Type Limits Name="ONOFF" not found -- will not be validated
   ** Warning ** Foundation:Kiva="KIVA FOUNDATION", no Interior Horizontal Insulation Material Name defined
   **   ~~~   ** Interior Horizontal Insulation Depth will not be used.
   ** Warning ** CheckUsedConstructions: There are 15 nominally unused constructions in input.
   **   ~~~   ** Each Unused construction is shown.
   ************* Construction=INTERIOR FLOOR
   ************* Construction=INTERIOR WINDOW
   ************* Construction=EXTERIOR DOOR
   ************* Construction=INTERIOR DOOR
   ************* Construction=GABLE CONSTRUCTION
   ************* Construction=CRAWL_FLOOR
   ************* Construction=INSULATED PIPE
   ************* Construction=PLAIN PIPE
   ************* Construction=TDD PIPE
   ************* Construction=TDD DOME
   ************* Construction=TDD DIFFUSER
   ************* Construction=CRAWL WALL
   ************* Construction=CEILING-FLOOR-LAYER
   ************* Construction=SLAB CONSTRUCTION W FULL R10 INSULATION
   ************* Construction=SLAB CONSTRUCTION W FULL R5 INSULATION
   ** Warning ** GetDXCoils: Coil:Heating:DX:SingleSpeed="DX_HEATING_COIL" curve values
   **   ~~~   ** ... Defrost Energy Input Ratio Function of Temperature Curve Name = DEFROSTEIR output is not equal to 1.0 (+ or - 10%) at rated conditions.
   **   ~~~   ** ... Curve output at rated conditions = 0.152
   ************* Beginning System Sizing Calculations
   ************* Beginning Plant Sizing Calculations
   ** Warning ** SizeDXCoil Coil:Cooling:DX:SingleSpeed DX_COOLING_COIL
   **   ~~~   ** ...Gross Rated Total Cooling Capacity [W] will be limited by the maximum rated volume flow per rated total capacity ratio.
   **   ~~~   ** ...DX coil volume flow rate ( m3/s ) = 0.537758
   **   ~~~   ** ...Requested capacity ( W ) = 7319.249
   **   ~~~   ** ...Requested flow/capacity ratio ( m3/s/W ) = 7.347E-005
   **   ~~~   ** ...Maximum flow/capacity ratio ( m3/s/W ) = 6.041E-005
   **   ~~~   ** ...Adjusted capacity ( W ) = 8901.820
   ** Warning ** Coil:WaterHeating:AirToWaterHeatPump:Wrapped "HEAT PUMP WATER HEATER EVAPORATOR": Rated air volume flow rate per watt of rated total water heating capacity is out of range
   **   ~~~   ** Min Rated Vol Flow Per Watt=[4.027E-005], Rated Vol Flow Per Watt=[1.510E-004], Max Rated Vol Flow Per Watt=[8.056E-005]. See Input-Output Reference Manual for valid range.
   ************* SizeFan: : Potential issue with equipment sizing for Fan:OnOff HEAT PUMP WATER HEATER FAN
   **   ~~~   ** User-Specified Maximum Flow Rate [m3/s] = 0.22653
   **   ~~~   ** differs from Design Size Maximum Flow Rate [m3/s] = 7.55250E-002
   **   ~~~   ** This may, or may not, indicate mismatched component sizes.
   **   ~~~   ** Verify that the value entered is intended and is consistent with other components.
   ** Warning ** Water heater = WATER HEATER TANK:  Recovery Efficiency and Energy Factor could not be calculated during the test for standard ratings
   **   ~~~   ** Setpoint was never recovered and/or heater never turned on
   ** Warning ** Check input. Pump nominal power or motor efficiency is set to 0, for pump=MAINS PRESSURE
   ** Warning ** Output:Meter: invalid Key Name="ELECTRIC_RANGE:INTERIOREQUIPMENT:ELECTRICITY" - not found.
   ** Warning ** Output:Meter: invalid Key Name="ELECTRIC_DRYER:INTERIOREQUIPMENT:ELECTRICITY" - not found.
   ** Warning ** Output:Meter: invalid Key Name="HEATRECOVERY:ELECTRICITY" - not found.
   ** Warning ** Output:Meter: invalid Key Name="HEATING:NATURALGAS" - not found.
   ** Warning ** Output:Meter: invalid Key Name="WATERSYSTEMS:NATURALGAS" - not found.
   ** Warning ** Output:Meter: invalid Key Name="PROPANE:FACILITY" - not found.
   ** Warning ** Output:Meter: invalid Key Name="HEATING:PROPANE" - not found.
   ************* Testing Individual Branch Integrity
   ************* All Branches passed integrity testing
   ************* Testing Individual Supply Air Path Integrity
   ************* All Supply Air Paths passed integrity testing
   ************* Testing Individual Return Air Path Integrity
   ************* All Return Air Paths passed integrity testing
   ************* No node connection errors were found.
   ************* Beginning Simulation
   ** Warning ** AirflowNetwork::Solver::validate_distribution: Heat pump water heater is simulated along with an AirflowNetwork but is not included in the AirflowNetwork.
   ** Severe  ** CheckWarmupConvergence: Loads Initialization, Zone="LIVING" did not converge after 25 warmup days.
   **   ~~~   ** See Warmup Convergence Information in .eio file for details.
   **   ~~~   ** ...Environment(SizingPeriod)="EXTREME_WINTER"
   **   ~~~   ** ..Max Temp Comparison = 3.84E-003 vs Temperature Convergence Tolerance=5.00E-002 - Pass Convergence
   **   ~~~   ** ..Min Temp Comparison = 0.12 vs Temperature Convergence Tolerance=5.00E-002 - Fail Convergence
   **   ~~~   ** ..Max Heat Load Comparison = 7.9771E-003 vs Loads Convergence Tolerance=5.00E-002 - Pass Convergence
   **   ~~~   ** ..Max Cool Load Comparison = 2.5630E-005 vs Loads Convergence Tolerance=5.00E-002 - Pass Convergence
   ** Warning ** CalcEquipmentFlowRates: "TOTAL HOT WATER LOAD" - Target water temperature is greater than the hot water temperature by (0.84 C)
   **   ~~~   **  Environment=EXTREME_WINTER, at Simulation time=01/13 06:45 - 07:00
   **   ~~~   ** ...target water temperature     = 53.33 C
   **   ~~~   ** ...hot water temperature        = 52.49 C
   **   ~~~   ** ...Target water temperature should be less than or equal to the hot water temperature. Verify temperature setpoints and schedules.
   ** Warning ** SimHVAC: Maximum iterations (20) exceeded for all HVAC loops, at EXTREME_SUMMER, 07/23 03:15 - 03:30
   **   ~~~   ** The solution for one or more of the Air Loop HVAC systems did not appear to converge
   **   ~~~   ** Air System Named = CENTRAL SYSTEM did not converge for mass flow rate
   **   ~~~   ** Check values should be zero. Most Recent values listed first.
   **   ~~~   ** Demand-to-Supply interface mass flow rate check value iteration history trace: 3.279221E-002,3.279221E-002,3.279221E-002,3.279221E-002,3.279221E-002,3.279221E-002,3.279221E-002,3.279221E-002,3.279221E-002,3.279221E-002,
   **   ~~~   ** Supply-to-demand interface deck 1 mass flow rate check value iteration history trace: 3.279221E-002,3.279221E-002,3.279221E-002,3.279221E-002,3.279221E-002,3.279221E-002,3.279221E-002,3.279221E-002,3.279221E-002,3.279221E-002,
   **   ~~~   ** Air System Named = CENTRAL SYSTEM did not converge for energy
   **   ~~~   ** Check values should be zero. Most Recent values listed first.
   **   ~~~   ** Demand-to-Supply interface energy check value iteration history trace: 798.238610,798.238610,798.238610,798.238610,798.238610,798.238611,798.238611,798.238611,798.238611,798.238611,
   **   ~~~   ** Supply-to-demand interface deck 1 energy check value iteration history trace: 377.222961,377.222961,377.222961,377.222961,377.222961,377.222961,377.222961,377.222961,377.222962,377.222962,
   ** Warning ** SimHVAC: Maximum iterations (20) exceeded for all HVAC loops, at ANNUAL, 01/11 09:15 - 09:18
   **   ~~~   ** The solution for one or more of the Air Loop HVAC systems did not appear to converge
   **   ~~~   ** Air System Named = CENTRAL SYSTEM did not converge for mass flow rate
   **   ~~~   ** Check values should be zero. Most Recent values listed first.
   **   ~~~   ** Demand-to-Supply interface mass flow rate check value iteration history trace: 6.317983E-002,6.317983E-002,6.317983E-002,6.317983E-002,6.317983E-002,6.317983E-002,6.317983E-002,6.317983E-002,6.317983E-002,6.317983E-002,
   **   ~~~   ** Supply-to-demand interface deck 1 mass flow rate check value iteration history trace: 6.317983E-002,6.317983E-002,6.317983E-002,6.317983E-002,6.317983E-002,6.317983E-002,6.317983E-002,6.317983E-002,6.317983E-002,6.317983E-002,
   **   ~~~   ** Air System Named = CENTRAL SYSTEM did not converge for energy
   **   ~~~   ** Check values should be zero. Most Recent values listed first.
   **   ~~~   ** Demand-to-Supply interface energy check value iteration history trace: 1251.994111,1251.994111,1251.994111,1251.994111,1251.994111,1251.994111,1251.994111,1251.994111,1251.994111,1251.994111,
   **   ~~~   ** Supply-to-demand interface deck 1 energy check value iteration history trace: 2238.213404,2238.213404,2238.213404,2238.213404,2238.213404,2238.213404,2238.213404,2238.213404,2238.213404,2238.213404,
   ** Warning ** Temperature out of range [-100. to 200.] (PsyPsatFnTemp)
   **   ~~~   **  Routine=PsyTwbFnTdbWPb, Environment=ANNUAL, at Simulation time=01/17 16:27 - 16:30
   **   ~~~   **  Input Temperature=-105.76
   ** Warning ** SimHVAC: Maximum iterations (20) exceeded for all HVAC loops, at ANNUAL, 01/22 10:02 - 10:03
   **   ~~~   ** The solution for one or more of the Air Loop HVAC systems did not appear to converge
   **   ~~~   ** Air System Named = CENTRAL SYSTEM did not converge for mass flow rate
   **   ~~~   ** Check values should be zero. Most Recent values listed first.
   **   ~~~   ** Demand-to-Supply interface mass flow rate check value iteration history trace: 4.816397E-002,4.816397E-002,4.816397E-002,4.816397E-002,4.816397E-002,4.816397E-002,4.816397E-002,4.816397E-002,4.816397E-002,4.816397E-002,
   **   ~~~   ** Supply-to-demand interface deck 1 mass flow rate check value iteration history trace: 4.816397E-002,4.816397E-002,4.816397E-002,4.816397E-002,4.816397E-002,4.816397E-002,4.816397E-002,4.816397E-002,4.816397E-002,4.816397E-002,
   **   ~~~   ** Air System Named = CENTRAL SYSTEM did not converge for energy
   **   ~~~   ** Check values should be zero. Most Recent values listed first.
   **   ~~~   ** Demand-to-Supply interface energy check value iteration history trace: 954.508036,954.508036,954.508036,954.508036,954.508036,954.508036,954.508036,954.508036,954.508036,954.508036,
   **   ~~~   ** Supply-to-demand interface deck 1 energy check value iteration history trace: 1749.276560,1749.276560,1749.276560,1749.276560,1749.276559,1749.276559,1749.276559,1749.276559,1749.276559,1749.276559,
   ** Warning ** SimHVAC: Maximum iterations (20) exceeded for all HVAC loops, at ANNUAL, 01/25 09:02 - 09:04
   **   ~~~   ** The solution for one or more of the Air Loop HVAC systems did not appear to converge
   **   ~~~   ** Air System Named = CENTRAL SYSTEM did not converge for mass flow rate
   **   ~~~   ** Check values should be zero. Most Recent values listed first.
   **   ~~~   ** Demand-to-Supply interface mass flow rate check value iteration history trace: 8.658097E-002,8.658097E-002,8.658097E-002,8.658097E-002,8.658097E-002,8.658097E-002,8.658097E-002,8.658097E-002,8.658097E-002,8.658097E-002,
   **   ~~~   ** Supply-to-demand interface deck 1 mass flow rate check value iteration history trace: 8.658097E-002,8.658097E-002,8.658097E-002,8.658097E-002,8.658097E-002,8.658097E-002,8.658097E-002,8.658097E-002,8.658097E-002,8.658097E-002,
   **   ~~~   ** Air System Named = CENTRAL SYSTEM did not converge for energy
   **   ~~~   ** Check values should be zero. Most Recent values listed first.
   **   ~~~   ** Demand-to-Supply interface energy check value iteration history trace: 1715.834380,1715.834380,1715.834380,1715.834380,1715.834380,1715.834380,1715.834380,1715.834380,1715.834380,1715.834380,
   **   ~~~   ** Supply-to-demand interface deck 1 energy check value iteration history trace: 2693.583933,2693.583933,2693.583933,2693.583933,2693.583933,2693.583933,2693.583932,2693.583932,2693.583932,2693.583932,
   ** Warning ** SimHVAC: Maximum iterations (20) exceeded for all HVAC loops, at ANNUAL, 02/01 18:15 - 18:30
   **   ~~~   ** The solution for one or more of the Air Loop HVAC systems did not appear to converge
   **   ~~~   ** Air System Named = CENTRAL SYSTEM did not converge for mass flow rate
   **   ~~~   ** Check values should be zero. Most Recent values listed first.
   **   ~~~   ** Demand-to-Supply interface mass flow rate check value iteration history trace: 5.735441E-002,5.735441E-002,5.735441E-002,5.735441E-002,5.735441E-002,5.735441E-002,5.735441E-002,5.735441E-002,5.735441E-002,5.735441E-002,
   **   ~~~   ** Supply-to-demand interface deck 1 mass flow rate check value iteration history trace: 5.735441E-002,5.735441E-002,5.735441E-002,5.735441E-002,5.735441E-002,5.735441E-002,5.735441E-002,5.735441E-002,5.735441E-002,5.735441E-002,
   **   ~~~   ** Air System Named = CENTRAL SYSTEM did not converge for energy
   **   ~~~   ** Check values should be zero. Most Recent values listed first.
   **   ~~~   ** Demand-to-Supply interface energy check value iteration history trace: 1140.249484,1140.249484,1140.249484,1140.249484,1140.249484,1140.249484,1140.249484,1140.249484,1140.249484,1140.249484,
   **   ~~~   ** Supply-to-demand interface deck 1 energy check value iteration history trace: 2019.793991,2019.793991,2019.793991,2019.793991,2019.793991,2019.793991,2019.793991,2019.793991,2019.793991,2019.793991,
   ** Warning ** SimHVAC: Maximum iterations (20) exceeded for all HVAC loops, at ANNUAL, 02/12 08:15 - 08:30
   **   ~~~   ** The solution for one or more of the Air Loop HVAC systems did not appear to converge
   **   ~~~   ** Air System Named = CENTRAL SYSTEM did not converge for mass flow rate
   **   ~~~   ** Check values should be zero. Most Recent values listed first.
   **   ~~~   ** Demand-to-Supply interface mass flow rate check value iteration history trace: 5.105091E-002,5.105091E-002,5.105091E-002,5.105091E-002,5.105091E-002,5.105091E-002,5.105091E-002,5.105091E-002,5.105091E-002,5.105091E-002,
   **   ~~~   ** Supply-to-demand interface deck 1 mass flow rate check value iteration history trace: 5.105091E-002,5.105091E-002,5.105091E-002,5.105091E-002,5.105091E-002,5.105091E-002,5.105091E-002,5.105091E-002,5.105091E-002,5.105091E-002,
   **   ~~~   ** Air System Named = CENTRAL SYSTEM did not converge for energy
   **   ~~~   ** Check values should be zero. Most Recent values listed first.
   **   ~~~   ** Demand-to-Supply interface energy check value iteration history trace: 995.394438,995.394438,995.394438,995.394437,995.394437,995.394437,995.394437,995.394437,995.394437,995.394437,
   **   ~~~   ** Supply-to-demand interface deck 1 energy check value iteration history trace: 1827.558931,1827.558931,1827.558931,1827.558931,1827.558931,1827.558931,1827.558931,1827.558931,1827.558931,1827.558931,
   ** Warning ** SimHVAC: Maximum iterations (20) exceeded for all HVAC loops, at ANNUAL, 02/12 08:53 - 08:56
   **   ~~~   ** The solution for one or more of the Air Loop HVAC systems did not appear to converge
   **   ~~~   ** Air System Named = CENTRAL SYSTEM did not converge for mass flow rate
   **   ~~~   ** Check values should be zero. Most Recent values listed first.
   **   ~~~   ** Demand-to-Supply interface mass flow rate check value iteration history trace: 5.310653E-002,5.310653E-002,5.310653E-002,5.310653E-002,5.310653E-002,5.310653E-002,5.310653E-002,5.310653E-002,5.310653E-002,5.310653E-002,
   **   ~~~   ** Supply-to-demand interface deck 1 mass flow rate check value iteration history trace: 5.310653E-002,5.310653E-002,5.310653E-002,5.310653E-002,5.310653E-002,5.310653E-002,5.310653E-002,5.310653E-002,5.310653E-002,5.310653E-002,
   **   ~~~   ** Air System Named = CENTRAL SYSTEM did not converge for energy
   **   ~~~   ** Check values should be zero. Most Recent values listed first.
   **   ~~~   ** Demand-to-Supply interface energy check value iteration history trace: 1044.492747,1044.492746,1044.492746,1044.492746,1044.492746,1044.492746,1044.492746,1044.492746,1044.492746,1044.492746,
   **   ~~~   ** Supply-to-demand interface deck 1 energy check value iteration history trace: 1930.815090,1930.815090,1930.815090,1930.815090,1930.815090,1930.815090,1930.815090,1930.815090,1930.815090,1930.815090,
   ** Warning ** SimHVAC: Maximum iterations (20) exceeded for all HVAC loops, at ANNUAL, 02/18 09:30 - 09:45
   **   ~~~   ** The solution for one or more of the Air Loop HVAC systems did not appear to converge
   **   ~~~   ** Air System Named = CENTRAL SYSTEM did not converge for mass flow rate
   **   ~~~   ** Check values should be zero. Most Recent values listed first.
   **   ~~~   ** Demand-to-Supply interface mass flow rate check value iteration history trace: 6.413450E-002,6.413450E-002,6.413450E-002,6.413450E-002,6.413450E-002,6.413450E-002,6.413450E-002,6.413450E-002,6.413450E-002,6.413450E-002,
   **   ~~~   ** Supply-to-demand interface deck 1 mass flow rate check value iteration history trace: 6.413450E-002,6.413450E-002,6.413450E-002,6.413450E-002,6.413450E-002,6.413450E-002,6.413450E-002,6.413450E-002,6.413450E-002,6.413450E-002,
   **   ~~~   ** Air System Named = CENTRAL SYSTEM did not converge for energy
   **   ~~~   ** Check values should be zero. Most Recent values listed first.
   **   ~~~   ** Demand-to-Supply interface energy check value iteration history trace: 1261.741869,1261.741869,1261.741869,1261.741869,1261.741869,1261.741869,1261.741869,1261.741869,1261.741868,1261.741868,
   **   ~~~   ** Supply-to-demand interface deck 1 energy check value iteration history trace: 2323.944532,2323.944532,2323.944532,2323.944531,2323.944531,2323.944531,2323.944531,2323.944531,2323.944531,2323.944531,
   ** Warning ** SimHVAC: Maximum iterations (20) exceeded for all HVAC loops, at ANNUAL, 02/22 10:01 - 10:03
   **   ~~~   ** The solution for one or more of the Air Loop HVAC systems did not appear to converge
   **   ~~~   ** Air System Named = CENTRAL SYSTEM did not converge for mass flow rate
   **   ~~~   ** Check values should be zero. Most Recent values listed first.
   **   ~~~   ** Demand-to-Supply interface mass flow rate check value iteration history trace: 5.313519E-002,5.313519E-002,5.313519E-002,5.313519E-002,5.313519E-002,5.313519E-002,5.313519E-002,5.313519E-002,5.313519E-002,5.313519E-002,
   **   ~~~   ** Supply-to-demand interface deck 1 mass flow rate check value iteration history trace: 5.313519E-002,5.313519E-002,5.313519E-002,5.313519E-002,5.313519E-002,5.313519E-002,5.313519E-002,5.313519E-002,5.313519E-002,5.313519E-002,
   **   ~~~   ** Air System Named = CENTRAL SYSTEM did not converge for energy
   **   ~~~   ** Check values should be zero. Most Recent values listed first.
   **   ~~~   ** Demand-to-Supply interface energy check value iteration history trace: 1050.759093,1050.759093,1050.759093,1050.759093,1050.759093,1050.759093,1050.759093,1050.759093,1050.759093,1050.759093,
   **   ~~~   ** Supply-to-demand interface deck 1 energy check value iteration history trace: 2000.082546,2000.082546,2000.082546,2000.082546,2000.082546,2000.082546,2000.082546,2000.082546,2000.082546,2000.082546,
   ** Warning ** SimHVAC: Maximum iterations (20) exceeded for all HVAC loops, at ANNUAL, 03/13 05:19 - 05:22
   **   ~~~   ** The solution for one or more of the Air Loop HVAC systems did not appear to converge
   **   ~~~   ** Air System Named = CENTRAL SYSTEM did not converge for mass flow rate
   **   ~~~   ** Check values should be zero. Most Recent values listed first.
   **   ~~~   ** Demand-to-Supply interface mass flow rate check value iteration history trace: 7.097090E-002,7.097090E-002,7.097090E-002,7.097090E-002,7.097090E-002,7.097090E-002,7.097090E-002,7.097090E-002,7.097090E-002,7.097090E-002,
   **   ~~~   ** Supply-to-demand interface deck 1 mass flow rate check value iteration history trace: 7.097090E-002,7.097090E-002,7.097090E-002,7.097090E-002,7.097090E-002,7.097090E-002,7.097090E-002,7.097090E-002,7.097090E-002,7.097090E-002,
   **   ~~~   ** Air System Named = CENTRAL SYSTEM did not converge for energy
   **   ~~~   ** Check values should be zero. Most Recent values listed first.
   **   ~~~   ** Demand-to-Supply interface energy check value iteration history trace: 1404.546011,1404.546011,1404.546011,1404.546011,1404.546011,1404.546011,1404.546011,1404.546011,1404.546011,1404.546011,
   **   ~~~   ** Supply-to-demand interface deck 1 energy check value iteration history trace: 2188.930007,2188.930007,2188.930006,2188.930006,2188.930006,2188.930006,2188.930006,2188.930006,2188.930006,2188.930006,
   ** Warning ** SimHVAC: Maximum iterations (20) exceeded for all HVAC loops, at ANNUAL, 03/27 08:15 - 08:30
   **   ~~~   ** The solution for one or more of the Air Loop HVAC systems did not appear to converge
   **   ~~~   ** Air System Named = CENTRAL SYSTEM did not converge for mass flow rate
   **   ~~~   ** Check values should be zero. Most Recent values listed first.
   **   ~~~   ** Demand-to-Supply interface mass flow rate check value iteration history trace: 6.804629E-002,6.804629E-002,6.804629E-002,6.804629E-002,6.804629E-002,6.804629E-002,6.804629E-002,6.804629E-002,6.804629E-002,6.804629E-002,
   **   ~~~   ** Supply-to-demand interface deck 1 mass flow rate check value iteration history trace: 6.804629E-002,6.804629E-002,6.804629E-002,6.804629E-002,6.804629E-002,6.804629E-002,6.804629E-002,6.804629E-002,6.804629E-002,6.804629E-002,
   **   ~~~   ** Air System Named = CENTRAL SYSTEM did not converge for energy
   **   ~~~   ** Check values should be zero. Most Recent values listed first.
   **   ~~~   ** Demand-to-Supply interface energy check value iteration history trace: 1348.404400,1348.404400,1348.404400,1348.404400,1348.404400,1348.404400,1348.404400,1348.404400,1348.404400,1348.404400,
   **   ~~~   ** Supply-to-demand interface deck 1 energy check value iteration history trace: 2259.027099,2259.027099,2259.027099,2259.027099,2259.027099,2259.027098,2259.027098,2259.027098,2259.027098,2259.027098,
   ** Warning ** SimHVAC: Maximum iterations (20) exceeded for all HVAC loops, at ANNUAL, 04/19 11:08 - 11:11
   **   ~~~   ** The solution for one or more of the Air Loop HVAC systems did not appear to converge
   **   ~~~   ** Air System Named = CENTRAL SYSTEM did not converge for mass flow rate
   **   ~~~   ** Check values should be zero. Most Recent values listed first.
   **   ~~~   ** Demand-to-Supply interface mass flow rate check value iteration history trace: 0.196062,0.196062,0.196062,0.196062,0.196062,0.196062,0.196062,0.196062,0.196062,0.196062,
   **   ~~~   ** Supply-to-demand interface deck 1 mass flow rate check value iteration history trace: 0.196062,0.196062,0.196062,0.196062,0.196062,0.196062,0.196062,0.196062,0.196062,0.196062,
   **   ~~~   ** Air System Named = CENTRAL SYSTEM did not converge for energy
   **   ~~~   ** Check values should be zero. Most Recent values listed first.
   **   ~~~   ** Demand-to-Supply interface energy check value iteration history trace: 4659.637087,4659.637087,4659.637087,4659.637088,4659.637088,4659.637088,4659.637088,4659.637089,4659.637089,4659.637089,
   **   ~~~   ** Supply-to-demand interface deck 1 energy check value iteration history trace: 1891.636013,1891.636013,1891.636013,1891.636013,1891.636013,1891.636013,1891.636013,1891.636014,1891.636014,1891.636014,
   ** Warning ** SimHVAC: Maximum iterations (20) exceeded for all HVAC loops, at ANNUAL, 04/28 09:50 - 09:52
   **   ~~~   ** The solution for one or more of the Air Loop HVAC systems did not appear to converge
   **   ~~~   ** Air System Named = CENTRAL SYSTEM did not converge for mass flow rate
   **   ~~~   ** Check values should be zero. Most Recent values listed first.
   **   ~~~   ** Demand-to-Supply interface mass flow rate check value iteration history trace: 0.285721,0.285721,0.285721,0.285721,0.285721,0.285721,0.285721,0.285721,0.285721,0.285721,
   **   ~~~   ** Supply-to-demand interface deck 1 mass flow rate check value iteration history trace: 0.285721,0.285721,0.285721,0.285721,0.285721,0.285721,0.285721,0.285721,0.285721,0.285721,
   **   ~~~   ** Air System Named = CENTRAL SYSTEM did not converge for energy
   **   ~~~   ** Check values should be zero. Most Recent values listed first.
   **   ~~~   ** Demand-to-Supply interface energy check value iteration history trace: 6840.195705,6840.195706,6840.195706,6840.195707,6840.195708,6840.195709,6840.195709,6840.195710,6840.195711,6840.195711,
   **   ~~~   ** Supply-to-demand interface deck 1 energy check value iteration history trace: 2132.620239,2132.620239,2132.620240,2132.620240,2132.620240,2132.620240,2132.620241,2132.620241,2132.620241,2132.620241,
   ** Warning ** SimHVAC: Maximum iterations (20) exceeded for all HVAC loops, at ANNUAL, 04/29 13:15 - 13:30
   **   ~~~   ** The solution for one or more of the Air Loop HVAC systems did not appear to converge
   **   ~~~   ** Air System Named = CENTRAL SYSTEM did not converge for mass flow rate
   **   ~~~   ** Check values should be zero. Most Recent values listed first.
   **   ~~~   ** Demand-to-Supply interface mass flow rate check value iteration history trace: 6.937725E-002,6.937725E-002,6.937725E-002,6.937725E-002,6.937725E-002,6.937725E-002,6.937725E-002,6.937725E-002,6.937725E-002,6.937725E-002,
   **   ~~~   ** Supply-to-demand interface deck 1 mass flow rate check value iteration history trace: 6.937725E-002,6.937725E-002,6.937725E-002,6.937725E-002,6.937725E-002,6.937725E-002,6.937725E-002,6.937725E-002,6.937725E-002,6.937725E-002,
   **   ~~~   ** Air System Named = CENTRAL SYSTEM did not converge for energy
   **   ~~~   ** Check values should be zero. Most Recent values listed first.
   **   ~~~   ** Demand-to-Supply interface energy check value iteration history trace: 1665.235038,1665.235038,1665.235038,1665.235038,1665.235038,1665.235038,1665.235038,1665.235038,1665.235039,1665.235039,
   **   ~~~   ** Supply-to-demand interface deck 1 energy check value iteration history trace: 495.266553,495.266553,495.266553,495.266553,495.266553,495.266553,495.266553,495.266553,495.266553,495.266553,
   ************* Simulation Error Summary *************
   ** Warning ** The following Report Variables were requested but not generated -- check.rdd file
   **   ~~~   ** Either the IDF did not contain these elements, the variable name is misspelled,
   **   ~~~   ** or the requested variable is an advanced output which requires Output : Diagnostics, DisplayAdvancedReportVariables;
   ************* Key=*, VarName=BASEBOARD TOTAL HEATING ENERGY, Frequency=
   ************* Key=*, VarName=WATER HEATER NATURALGAS ENERGY, Frequency=
   ************* Key=*, VarName=COOLING COIL TOTAL HEATING ENERGY, Frequency=
   ************* There are 34 unused schedules in input.
   ************* There are 388 unused week schedules in input.
   ************* There are 397 unused day schedules in input.
   ************* Use Output:Diagnostics,DisplayUnusedSchedules; to see them.
   *************
   ************* ===== Recurring Error Summary =====
   ************* The following recurring error messages occurred.
   *************
   *************  ** Warning ** "TOTAL HOT WATER LOAD" - Target water temperature should be less than or equal to the hot water temperature error continues...
   *************  **   ~~~   **   This error occurred 139053 total times;
   *************  **   ~~~   **   during Warmup 0 times;
   *************  **   ~~~   **   during Sizing 0 times.
   *************  **   ~~~   **   Max=9.440374  Min=1.989984E-003
   *************
   *************  ** Warning ** Temperature out of range [-100. to 200.] (PsyPsatFnTemp)
   *************  **   ~~~   **   This error occurred 3 total times;
   *************  **   ~~~   **   during Warmup 0 times;
   *************  **   ~~~   **   during Sizing 0 times.
   *************  **   ~~~   **   Max=-105.768005 C  Min=-106.225544 C
   *************
   *************  ** Warning ** SimHVAC: Exceeding Maximum iterations for all HVAC loops, during ANNUAL continues
   *************  **   ~~~   **   This error occurred 7 total times;
   *************  **   ~~~   **   during Warmup 0 times;
   *************  **   ~~~   **   during Sizing 0 times.
   *************
   *************
   ************* ===== Final Error Summary =====
   ************* The following error categories occurred.  Consider correcting or noting.
   ************* Loads Initialization did not Converge
   ************* ..1) very high thermal mass such as very thick concrete (solution: increase max number of warmup
   ************* ..   days in the BUILDING object);
   ************* ..2) moderate mass and inadequate space conditioning such that the building keeps getting warmer
   ************* ..   and warmer on successive days (solution: add HVAC, check building thermal properties,
   ************* ..   check if infiltration is included, make sure HVAC properly controlled);
   ************* ..3) a soil layer modeled below the concrete slab - (solution remove this layer and read about
   ************* ..   ground temperatures in the Auxiliary Programs document).
   ************* ..4) unreasonable (too small) limits in the BUILDING object for temperature (.4 default) or
   ************* ..   loads tolerances (.04 default)
   ************* Nominally Unused Constructions
   ************* ..The nominally unused constructions warning is provided to alert you to potential conditions that can cause
   ************* ..extra time during simulation. Each construction is calculated by the algorithm indicated in the HeatBalanceAlgorithm
   ************* ..object. You may remove the constructions indicated (when you use the DisplayExtraWarnings option).
   *************
   ************* EnergyPlus Warmup Error Summary. During Warmup: 1 Warning; 1 Severe Errors.
   ************* EnergyPlus Sizing Error Summary. During Sizing: 4 Warning; 0 Severe Errors.
   ************* EnergyPlus Completed Successfully-- 139095 Warning; 1 Severe Errors; Elapsed Time=00hr 02min  1.01sec
