Program Version,EnergyPlus, Version 22.2.0-c249759bad, YMD=2023.09.01 17:11,
   ************* Beginning Zone Sizing Calculations
   ** Warning ** ProcessScheduleInput: Schedule:Constant="ALWAYS ON DISCRETE", Schedule Type Limits Name="ONOFF" not found -- will not be validated
   ** Warning ** Foundation:Kiva="KIVA FOUNDATION", no Interior Horizontal Insulation Material Name defined
   **   ~~~   ** Interior Horizontal Insulation Depth will not be used.
   ** Warning ** CheckUsedConstructions: There are 15 nominally unused constructions in input.
   **   ~~~   ** Each Unused construction is shown.
   ************* Construction=INTERIOR FLOOR
   ************* Construction=INTERIOR WINDOW
   ************* Construction=EXTERIOR DOOR
   ************* Construction=INTERIOR DOOR
   ************* Construction=GABLE CONSTRUCTION
   ************* Construction=CRAWL_FLOOR
   ************* Construction=INSULATED PIPE
   ************* Construction=PLAIN PIPE
   ************* Construction=TDD PIPE
   ************* Construction=TDD DOME
   ************* Construction=TDD DIFFUSER
   ************* Construction=CRAWL WALL
   ************* Construction=CEILING-FLOOR-LAYER
   ************* Construction=SLAB CONSTRUCTION W FULL R10 INSULATION
   ************* Construction=SLAB CONSTRUCTION W FULL R5 INSULATION
   ** Warning ** GetDXCoils: Coil:Heating:DX:SingleSpeed="DX_HEATING_COIL" curve values
   **   ~~~   ** ... Defrost Energy Input Ratio Function of Temperature Curve Name = DEFROSTEIR output is not equal to 1.0 (+ or - 10%) at rated conditions.
   **   ~~~   ** ... Curve output at rated conditions = 0.152
   ************* Beginning System Sizing Calculations
   ************* Beginning Plant Sizing Calculations
   ** Warning ** SizeDXCoil Coil:Cooling:DX:SingleSpeed DX_COOLING_COIL
   **   ~~~   ** ...Gross Rated Total Cooling Capacity [W] will be limited by the maximum rated volume flow per rated total capacity ratio.
   **   ~~~   ** ...DX coil volume flow rate ( m3/s ) = 0.431047
   **   ~~~   ** ...Requested capacity ( W ) = 6731.617
   **   ~~~   ** ...Requested flow/capacity ratio ( m3/s/W ) = 6.403E-005
   **   ~~~   ** ...Maximum flow/capacity ratio ( m3/s/W ) = 6.041E-005
   **   ~~~   ** ...Adjusted capacity ( W ) = 7135.367
   ** Warning ** Coil:WaterHeating:AirToWaterHeatPump:Wrapped "HEAT PUMP WATER HEATER EVAPORATOR": Rated air volume flow rate per watt of rated total water heating capacity is out of range
   **   ~~~   ** Min Rated Vol Flow Per Watt=[4.027E-005], Rated Vol Flow Per Watt=[1.510E-004], Max Rated Vol Flow Per Watt=[8.056E-005]. See Input-Output Reference Manual for valid range.
   ************* SizeFan: : Potential issue with equipment sizing for Fan:OnOff HEAT PUMP WATER HEATER FAN
   **   ~~~   ** User-Specified Maximum Flow Rate [m3/s] = 0.22653
   **   ~~~   ** differs from Design Size Maximum Flow Rate [m3/s] = 7.55250E-002
   **   ~~~   ** This may, or may not, indicate mismatched component sizes.
   **   ~~~   ** Verify that the value entered is intended and is consistent with other components.
   ** Warning ** Water heater = WATER HEATER TANK:  Recovery Efficiency and Energy Factor could not be calculated during the test for standard ratings
   **   ~~~   ** Setpoint was never recovered and/or heater never turned on
   ** Warning ** Check input. Pump nominal power or motor efficiency is set to 0, for pump=MAINS PRESSURE
   ** Warning ** Output:Meter: invalid Key Name="ELECTRIC_RANGE:INTERIOREQUIPMENT:ELECTRICITY" - not found.
   ** Warning ** Output:Meter: invalid Key Name="ELECTRIC_DRYER:INTERIOREQUIPMENT:ELECTRICITY" - not found.
   ** Warning ** Output:Meter: invalid Key Name="HEATRECOVERY:ELECTRICITY" - not found.
   ** Warning ** Output:Meter: invalid Key Name="HEATING:NATURALGAS" - not found.
   ** Warning ** Output:Meter: invalid Key Name="WATERSYSTEMS:NATURALGAS" - not found.
   ** Warning ** Output:Meter: invalid Key Name="PROPANE:FACILITY" - not found.
   ** Warning ** Output:Meter: invalid Key Name="HEATING:PROPANE" - not found.
   ************* Testing Individual Branch Integrity
   ************* All Branches passed integrity testing
   ************* Testing Individual Supply Air Path Integrity
   ************* All Supply Air Paths passed integrity testing
   ************* Testing Individual Return Air Path Integrity
   ************* All Return Air Paths passed integrity testing
   ************* No node connection errors were found.
   ************* Beginning Simulation
   ** Warning ** AirflowNetwork::Solver::validate_distribution: Heat pump water heater is simulated along with an AirflowNetwork but is not included in the AirflowNetwork.
   ** Severe  ** CheckWarmupConvergence: Loads Initialization, Zone="LIVING" did not converge after 25 warmup days.
   **   ~~~   ** See Warmup Convergence Information in .eio file for details.
   **   ~~~   ** ...Environment(SizingPeriod)="EXTREME_WINTER"
   **   ~~~   ** ..Max Temp Comparison = 5.12E-002 vs Temperature Convergence Tolerance=5.00E-002 - Fail Convergence
   **   ~~~   ** ..Min Temp Comparison = 7.61E-005 vs Temperature Convergence Tolerance=5.00E-002 - Pass Convergence
   **   ~~~   ** ..Max Heat Load Comparison = 5.3488E-004 vs Loads Convergence Tolerance=5.00E-002 - Pass Convergence
   **   ~~~   ** ..Max Cool Load Comparison = 2.9588E-002 vs Loads Convergence Tolerance=5.00E-002 - Pass Convergence
   ** Severe  ** CheckWarmupConvergence: Loads Initialization, Zone="ATTIC" did not converge after 25 warmup days.
   **   ~~~   ** ...Environment(SizingPeriod)="EXTREME_WINTER"
   **   ~~~   ** ..Max Temp Comparison = 8.77E-002 vs Temperature Convergence Tolerance=5.00E-002 - Fail Convergence
   **   ~~~   ** ..Min Temp Comparison = 2.14E-004 vs Temperature Convergence Tolerance=5.00E-002 - Pass Convergence
   **   ~~~   ** ..Max Heat Load Comparison = 0.0000 vs Loads Convergence Tolerance=5.00E-002 - Pass Convergence
   **   ~~~   ** ..Max Cool Load Comparison = 0.0000 vs Loads Convergence Tolerance=5.00E-002 - Pass Convergence
   ** Warning ** CalcEquipmentFlowRates: "TOTAL HOT WATER LOAD" - Target water temperature is greater than the hot water temperature by (0.22 C)
   **   ~~~   **  Environment=EXTREME_WINTER, at Simulation time=02/10 06:00 - 06:15
   **   ~~~   ** ...target water temperature     = 53.33 C
   **   ~~~   ** ...hot water temperature        = 53.11 C
   **   ~~~   ** ...Target water temperature should be less than or equal to the hot water temperature. Verify temperature setpoints and schedules.
   ** Warning ** SimHVAC: Maximum iterations (20) exceeded for all HVAC loops, at EXTREME_WINTER, 02/14 11:06 - 11:09
   **   ~~~   ** The solution for one or more of the Air Loop HVAC systems did not appear to converge
   **   ~~~   ** Air System Named = CENTRAL SYSTEM did not converge for mass flow rate
   **   ~~~   ** Check values should be zero. Most Recent values listed first.
   **   ~~~   ** Demand-to-Supply interface mass flow rate check value iteration history trace: 5.928117E-002,5.928117E-002,5.928117E-002,5.928117E-002,5.928117E-002,5.928117E-002,5.928117E-002,5.928117E-002,5.928117E-002,5.928117E-002,
   **   ~~~   ** Supply-to-demand interface deck 1 mass flow rate check value iteration history trace: 5.928117E-002,5.928117E-002,5.928117E-002,5.928117E-002,5.928117E-002,5.928117E-002,5.928117E-002,5.928117E-002,5.928117E-002,5.928117E-002,
   **   ~~~   ** Air System Named = CENTRAL SYSTEM did not converge for energy
   **   ~~~   ** Check values should be zero. Most Recent values listed first.
   **   ~~~   ** Demand-to-Supply interface energy check value iteration history trace: 1169.978863,1169.978863,1169.978862,1169.978862,1169.978862,1169.978862,1169.978862,1169.978862,1169.978862,1169.978862,
   **   ~~~   ** Supply-to-demand interface deck 1 energy check value iteration history trace: 2090.402944,2090.402943,2090.402943,2090.402943,2090.402943,2090.402943,2090.402943,2090.402943,2090.402943,2090.402943,
   ** Warning ** SimHVAC: Maximum iterations (20) exceeded for all HVAC loops, at EXTREME_SUMMER, 06/20 05:08 - 05:11
   **   ~~~   ** The solution for one or more of the Air Loop HVAC systems did not appear to converge
   **   ~~~   ** Air System Named = CENTRAL SYSTEM did not converge for mass flow rate
   **   ~~~   ** Check values should be zero. Most Recent values listed first.
   **   ~~~   ** Demand-to-Supply interface mass flow rate check value iteration history trace: 2.274514E-002,2.274514E-002,2.274514E-002,2.274514E-002,2.274514E-002,2.274514E-002,2.274514E-002,2.274514E-002,2.274514E-002,2.274514E-002,
   **   ~~~   ** Supply-to-demand interface deck 1 mass flow rate check value iteration history trace: 2.274514E-002,2.274514E-002,2.274514E-002,2.274514E-002,2.274514E-002,2.274514E-002,2.274514E-002,2.274514E-002,2.274514E-002,2.274514E-002,
   **   ~~~   ** Air System Named = CENTRAL SYSTEM did not converge for energy
   **   ~~~   ** Check values should be zero. Most Recent values listed first.
   **   ~~~   ** Demand-to-Supply interface energy check value iteration history trace: 532.396707,532.396707,532.396707,532.396707,532.396708,532.396708,532.396708,532.396708,532.396708,532.396709,
   **   ~~~   ** Supply-to-demand interface deck 1 energy check value iteration history trace: 310.211896,310.211896,310.211897,310.211897,310.211897,310.211897,310.211897,310.211897,310.211897,310.211897,
   ** Warning ** SimHVAC: Maximum iterations (20) exceeded for all HVAC loops, at ANNUAL, 02/10 15:00 - 15:15
   **   ~~~   ** The solution for one or more of the Air Loop HVAC systems did not appear to converge
   **   ~~~   ** Air System Named = CENTRAL SYSTEM did not converge for mass flow rate
   **   ~~~   ** Check values should be zero. Most Recent values listed first.
   **   ~~~   ** Demand-to-Supply interface mass flow rate check value iteration history trace: 5.847914E-002,5.847914E-002,5.847914E-002,5.847914E-002,5.847914E-002,5.847914E-002,5.847914E-002,5.847914E-002,5.847914E-002,5.847914E-002,
   **   ~~~   ** Supply-to-demand interface deck 1 mass flow rate check value iteration history trace: 5.847914E-002,5.847914E-002,5.847914E-002,5.847914E-002,5.847914E-002,5.847914E-002,5.847914E-002,5.847914E-002,5.847914E-002,5.847914E-002,
   **   ~~~   ** Air System Named = CENTRAL SYSTEM did not converge for energy
   **   ~~~   ** Check values should be zero. Most Recent values listed first.
   **   ~~~   ** Demand-to-Supply interface energy check value iteration history trace: 1157.058163,1157.058163,1157.058163,1157.058163,1157.058163,1157.058163,1157.058163,1157.058162,1157.058162,1157.058162,
   **   ~~~   ** Supply-to-demand interface deck 1 energy check value iteration history trace: 2023.643798,2023.643798,2023.643797,2023.643797,2023.643797,2023.643797,2023.643797,2023.643797,2023.643797,2023.643797,
   ** Warning ** SimHVAC: Maximum iterations (20) exceeded for all HVAC loops, at ANNUAL, 02/23 07:15 - 07:22
   **   ~~~   ** The solution for one or more of the Air Loop HVAC systems did not appear to converge
   **   ~~~   ** Air System Named = CENTRAL SYSTEM did not converge for mass flow rate
   **   ~~~   ** Check values should be zero. Most Recent values listed first.
   **   ~~~   ** Demand-to-Supply interface mass flow rate check value iteration history trace: 6.998235E-002,6.998235E-002,6.998235E-002,6.998235E-002,6.998235E-002,6.998235E-002,6.998235E-002,6.998235E-002,6.998235E-002,6.998235E-002,
   **   ~~~   ** Supply-to-demand interface deck 1 mass flow rate check value iteration history trace: 6.998235E-002,6.998235E-002,6.998235E-002,6.998235E-002,6.998235E-002,6.998235E-002,6.998235E-002,6.998235E-002,6.998235E-002,6.998235E-002,
   **   ~~~   ** Air System Named = CENTRAL SYSTEM did not converge for energy
   **   ~~~   ** Check values should be zero. Most Recent values listed first.
   **   ~~~   ** Demand-to-Supply interface energy check value iteration history trace: 1386.535112,1386.535112,1386.535112,1386.535112,1386.535112,1386.535112,1386.535112,1386.535112,1386.535112,1386.535112,
   **   ~~~   ** Supply-to-demand interface deck 1 energy check value iteration history trace: 2400.428215,2400.428215,2400.428215,2400.428215,2400.428215,2400.428215,2400.428215,2400.428215,2400.428215,2400.428215,
   ** Warning ** SimHVAC: Maximum iterations (20) exceeded for all HVAC loops, at ANNUAL, 02/26 19:10 - 19:15
   **   ~~~   ** The solution for one or more of the Air Loop HVAC systems did not appear to converge
   **   ~~~   ** Air System Named = CENTRAL SYSTEM did not converge for mass flow rate
   **   ~~~   ** Check values should be zero. Most Recent values listed first.
   **   ~~~   ** Demand-to-Supply interface mass flow rate check value iteration history trace: 9.990621E-002,9.990621E-002,9.990621E-002,9.990621E-002,9.990621E-002,9.990621E-002,9.990621E-002,9.990621E-002,9.990621E-002,9.990621E-002,
   **   ~~~   ** Supply-to-demand interface deck 1 mass flow rate check value iteration history trace: 9.990621E-002,9.990621E-002,9.990621E-002,9.990621E-002,9.990621E-002,9.990621E-002,9.990621E-002,9.990621E-002,9.990621E-002,9.990621E-002,
   **   ~~~   ** Air System Named = CENTRAL SYSTEM did not converge for energy
   **   ~~~   ** Check values should be zero. Most Recent values listed first.
   **   ~~~   ** Demand-to-Supply interface energy check value iteration history trace: 1972.086067,1972.086067,1972.086067,1972.086067,1972.086067,1972.086067,1972.086067,1972.086067,1972.086066,1972.086066,
   **   ~~~   ** Supply-to-demand interface deck 1 energy check value iteration history trace: 3135.457996,3135.457996,3135.457996,3135.457996,3135.457995,3135.457995,3135.457995,3135.457995,3135.457995,3135.457994,
   ** Warning ** SimHVAC: Maximum iterations (20) exceeded for all HVAC loops, at ANNUAL, 03/01 12:38 - 12:45
   **   ~~~   ** The solution for one or more of the Air Loop HVAC systems did not appear to converge
   **   ~~~   ** Air System Named = CENTRAL SYSTEM did not converge for mass flow rate
   **   ~~~   ** Check values should be zero. Most Recent values listed first.
   **   ~~~   ** Demand-to-Supply interface mass flow rate check value iteration history trace: 5.122855E-002,5.122855E-002,5.122855E-002,5.122855E-002,5.122855E-002,5.122855E-002,5.122855E-002,5.122855E-002,5.122855E-002,5.122855E-002,
   **   ~~~   ** Supply-to-demand interface deck 1 mass flow rate check value iteration history trace: 5.122855E-002,5.122855E-002,5.122855E-002,5.122855E-002,5.122855E-002,5.122855E-002,5.122855E-002,5.122855E-002,5.122855E-002,5.122855E-002,
   **   ~~~   ** Air System Named = CENTRAL SYSTEM did not converge for energy
   **   ~~~   ** Check values should be zero. Most Recent values listed first.
   **   ~~~   ** Demand-to-Supply interface energy check value iteration history trace: 1009.156840,1009.156840,1009.156840,1009.156840,1009.156840,1009.156840,1009.156840,1009.156840,1009.156840,1009.156840,
   **   ~~~   ** Supply-to-demand interface deck 1 energy check value iteration history trace: 1836.661121,1836.661121,1836.661121,1836.661121,1836.661121,1836.661121,1836.661121,1836.661121,1836.661121,1836.661121,
   **   ~~~   ** Node named ZONE INLET NODE shows oscillating temperatures across iterations with a repeated value of 35.679467
   **   ~~~   ** Node named ZONE INLET NODE temperature [C] iteration history trace (most recent first): 35.679467,35.679467,35.679467,35.679467,35.679466,35.679466,35.679466,35.679466,35.679465,35.679465,
   ** Warning ** SimHVAC: Maximum iterations (20) exceeded for all HVAC loops, at ANNUAL, 03/03 07:15 - 07:22
   **   ~~~   ** The solution for one or more of the Air Loop HVAC systems did not appear to converge
   **   ~~~   ** Air System Named = CENTRAL SYSTEM did not converge for mass flow rate
   **   ~~~   ** Check values should be zero. Most Recent values listed first.
   **   ~~~   ** Demand-to-Supply interface mass flow rate check value iteration history trace: 6.306342E-002,6.306342E-002,6.306342E-002,6.306342E-002,6.306342E-002,6.306342E-002,6.306342E-002,6.306342E-002,6.306342E-002,6.306342E-002,
   **   ~~~   ** Supply-to-demand interface deck 1 mass flow rate check value iteration history trace: 6.306342E-002,6.306342E-002,6.306342E-002,6.306342E-002,6.306342E-002,6.306342E-002,6.306342E-002,6.306342E-002,6.306342E-002,6.306342E-002,
   **   ~~~   ** Air System Named = CENTRAL SYSTEM did not converge for energy
   **   ~~~   ** Check values should be zero. Most Recent values listed first.
   **   ~~~   ** Demand-to-Supply interface energy check value iteration history trace: 1248.286412,1248.286412,1248.286412,1248.286412,1248.286412,1248.286412,1248.286412,1248.286412,1248.286412,1248.286411,
   **   ~~~   ** Supply-to-demand interface deck 1 energy check value iteration history trace: 2187.494025,2187.494025,2187.494025,2187.494025,2187.494025,2187.494025,2187.494025,2187.494025,2187.494025,2187.494025,
   ** Warning ** SimHVAC: Maximum iterations (20) exceeded for all HVAC loops, at ANNUAL, 03/11 08:24 - 08:26
   **   ~~~   ** The solution for one or more of the Air Loop HVAC systems did not appear to converge
   **   ~~~   ** Air System Named = CENTRAL SYSTEM did not converge for mass flow rate
   **   ~~~   ** Check values should be zero. Most Recent values listed first.
   **   ~~~   ** Demand-to-Supply interface mass flow rate check value iteration history trace: 6.394780E-002,6.394780E-002,6.394780E-002,6.394780E-002,6.394780E-002,6.394780E-002,6.394780E-002,6.394780E-002,6.394780E-002,6.394780E-002,
   **   ~~~   ** Supply-to-demand interface deck 1 mass flow rate check value iteration history trace: 6.394780E-002,6.394780E-002,6.394780E-002,6.394780E-002,6.394780E-002,6.394780E-002,6.394780E-002,6.394780E-002,6.394780E-002,6.394780E-002,
   **   ~~~   ** Air System Named = CENTRAL SYSTEM did not converge for energy
   **   ~~~   ** Check values should be zero. Most Recent values listed first.
   **   ~~~   ** Demand-to-Supply interface energy check value iteration history trace: 1266.094314,1266.094314,1266.094314,1266.094314,1266.094314,1266.094314,1266.094314,1266.094314,1266.094314,1266.094314,
   **   ~~~   ** Supply-to-demand interface deck 1 energy check value iteration history trace: 2244.174470,2244.174470,2244.174470,2244.174469,2244.174469,2244.174469,2244.174469,2244.174469,2244.174469,2244.174469,
   ** Warning ** SimHVAC: Maximum iterations (20) exceeded for all HVAC loops, at ANNUAL, 03/12 10:30 - 10:38
   **   ~~~   ** The solution for one or more of the Air Loop HVAC systems did not appear to converge
   **   ~~~   ** Air System Named = CENTRAL SYSTEM did not converge for mass flow rate
   **   ~~~   ** Check values should be zero. Most Recent values listed first.
   **   ~~~   ** Demand-to-Supply interface mass flow rate check value iteration history trace: 6.462330E-002,6.462330E-002,6.462330E-002,6.462330E-002,6.462330E-002,6.462330E-002,6.462330E-002,6.462330E-002,6.462330E-002,6.462330E-002,
   **   ~~~   ** Supply-to-demand interface deck 1 mass flow rate check value iteration history trace: 6.462330E-002,6.462330E-002,6.462330E-002,6.462330E-002,6.462330E-002,6.462330E-002,6.462330E-002,6.462330E-002,6.462330E-002,6.462330E-002,
   **   ~~~   ** Air System Named = CENTRAL SYSTEM did not converge for energy
   **   ~~~   ** Check values should be zero. Most Recent values listed first.
   **   ~~~   ** Demand-to-Supply interface energy check value iteration history trace: 1278.741335,1278.741335,1278.741334,1278.741334,1278.741334,1278.741334,1278.741334,1278.741334,1278.741334,1278.741334,
   **   ~~~   ** Supply-to-demand interface deck 1 energy check value iteration history trace: 2277.479143,2277.479142,2277.479142,2277.479142,2277.479142,2277.479142,2277.479142,2277.479142,2277.479142,2277.479142,
   ** Warning ** SimHVAC: Maximum iterations (20) exceeded for all HVAC loops, at ANNUAL, 03/26 09:04 - 09:06
   **   ~~~   ** The solution for one or more of the Air Loop HVAC systems did not appear to converge
   **   ~~~   ** Air System Named = CENTRAL SYSTEM did not converge for mass flow rate
   **   ~~~   ** Check values should be zero. Most Recent values listed first.
   **   ~~~   ** Demand-to-Supply interface mass flow rate check value iteration history trace: 7.490293E-002,7.490293E-002,7.490293E-002,7.490293E-002,7.490293E-002,7.490293E-002,7.490293E-002,7.490293E-002,7.490293E-002,7.490293E-002,
   **   ~~~   ** Supply-to-demand interface deck 1 mass flow rate check value iteration history trace: 7.490293E-002,7.490293E-002,7.490293E-002,7.490293E-002,7.490293E-002,7.490293E-002,7.490293E-002,7.490293E-002,7.490293E-002,7.490293E-002,
   **   ~~~   ** Air System Named = CENTRAL SYSTEM did not converge for energy
   **   ~~~   ** Check values should be zero. Most Recent values listed first.
   **   ~~~   ** Demand-to-Supply interface energy check value iteration history trace: 1484.390223,1484.390223,1484.390223,1484.390223,1484.390223,1484.390223,1484.390222,1484.390222,1484.390222,1484.390222,
   **   ~~~   ** Supply-to-demand interface deck 1 energy check value iteration history trace: 2538.881798,2538.881797,2538.881797,2538.881797,2538.881797,2538.881797,2538.881797,2538.881797,2538.881796,2538.881796,
   ** Warning ** SimHVAC: Maximum iterations (20) exceeded for all HVAC loops, at ANNUAL, 04/14 09:20 - 09:25
   **   ~~~   ** The solution for one or more of the Air Loop HVAC systems did not appear to converge
   **   ~~~   ** Air System Named = CENTRAL SYSTEM did not converge for mass flow rate
   **   ~~~   ** Check values should be zero. Most Recent values listed first.
   **   ~~~   ** Demand-to-Supply interface mass flow rate check value iteration history trace: 0.166689,0.166689,0.166689,0.166689,0.166689,0.166689,0.166689,0.166689,0.166689,0.166689,
   **   ~~~   ** Supply-to-demand interface deck 1 mass flow rate check value iteration history trace: 0.166689,0.166689,0.166689,0.166689,0.166689,0.166689,0.166689,0.166689,0.166689,0.166689,
   **   ~~~   ** Air System Named = CENTRAL SYSTEM did not converge for energy
   **   ~~~   ** Check values should be zero. Most Recent values listed first.
   **   ~~~   ** Demand-to-Supply interface energy check value iteration history trace: 3938.742397,3938.742398,3938.742398,3938.742398,3938.742398,3938.742399,3938.742399,3938.742399,3938.742400,3938.742400,
   **   ~~~   ** Supply-to-demand interface deck 1 energy check value iteration history trace: 2232.871409,2232.871409,2232.871409,2232.871409,2232.871409,2232.871410,2232.871410,2232.871410,2232.871410,2232.871410,
   ** Warning ** SimHVAC: Maximum iterations (20) exceeded for all HVAC loops, at ANNUAL, 04/14 10:04 - 10:08
   **   ~~~   ** The solution for one or more of the Air Loop HVAC systems did not appear to converge
   **   ~~~   ** Air System Named = CENTRAL SYSTEM did not converge for mass flow rate
   **   ~~~   ** Check values should be zero. Most Recent values listed first.
   **   ~~~   ** Demand-to-Supply interface mass flow rate check value iteration history trace: 0.184239,0.184239,0.184239,0.184239,0.184239,0.184239,0.184239,0.184239,0.184239,0.184239,
   **   ~~~   ** Supply-to-demand interface deck 1 mass flow rate check value iteration history trace: 0.184239,0.184239,0.184239,0.184239,0.184239,0.184239,0.184239,0.184239,0.184239,0.184239,
   **   ~~~   ** Air System Named = CENTRAL SYSTEM did not converge for energy
   **   ~~~   ** Check values should be zero. Most Recent values listed first.
   **   ~~~   ** Demand-to-Supply interface energy check value iteration history trace: 4345.827696,4345.827696,4345.827697,4345.827697,4345.827698,4345.827698,4345.827699,4345.827699,4345.827699,4345.827700,
   **   ~~~   ** Supply-to-demand interface deck 1 energy check value iteration history trace: 2445.055774,2445.055774,2445.055774,2445.055774,2445.055774,2445.055775,2445.055775,2445.055775,2445.055775,2445.055776,
   ** Warning ** SimHVAC: Maximum iterations (20) exceeded for all HVAC loops, at ANNUAL, 04/15 23:25 - 23:30
   **   ~~~   ** The solution for one or more of the Air Loop HVAC systems did not appear to converge
   **   ~~~   ** Air System Named = CENTRAL SYSTEM did not converge for mass flow rate
   **   ~~~   ** Check values should be zero. Most Recent values listed first.
   **   ~~~   ** Demand-to-Supply interface mass flow rate check value iteration history trace: 8.098944E-002,8.098944E-002,8.098944E-002,8.098944E-002,8.098944E-002,8.098944E-002,8.098944E-002,8.098944E-002,8.098944E-002,8.098944E-002,
   **   ~~~   ** Supply-to-demand interface deck 1 mass flow rate check value iteration history trace: 8.098944E-002,8.098944E-002,8.098944E-002,8.098944E-002,8.098944E-002,8.098944E-002,8.098944E-002,8.098944E-002,8.098944E-002,8.098944E-002,
   **   ~~~   ** Air System Named = CENTRAL SYSTEM did not converge for energy
   **   ~~~   ** Check values should be zero. Most Recent values listed first.
   **   ~~~   ** Demand-to-Supply interface energy check value iteration history trace: 1516.566629,1516.566629,1516.566629,1516.566629,1516.566629,1516.566629,1516.566629,1516.566629,1516.566629,1516.566629,
   **   ~~~   ** Supply-to-demand interface deck 1 energy check value iteration history trace: 2391.166647,2391.166647,2391.166647,2391.166647,2391.166646,2391.166646,2391.166646,2391.166646,2391.166646,2391.166646,
   ** Warning ** SimHVAC: Maximum iterations (20) exceeded for all HVAC loops, at ANNUAL, 10/25 08:38 - 08:41
   **   ~~~   ** The solution for one or more of the Air Loop HVAC systems did not appear to converge
   **   ~~~   ** Air System Named = CENTRAL SYSTEM did not converge for mass flow rate
   **   ~~~   ** Check values should be zero. Most Recent values listed first.
   **   ~~~   ** Demand-to-Supply interface mass flow rate check value iteration history trace: 5.924001E-002,5.924001E-002,5.924001E-002,5.924001E-002,5.924001E-002,5.924001E-002,5.924001E-002,5.924001E-002,5.924001E-002,5.924001E-002,
   **   ~~~   ** Supply-to-demand interface deck 1 mass flow rate check value iteration history trace: 5.924001E-002,5.924001E-002,5.924001E-002,5.924001E-002,5.924001E-002,5.924001E-002,5.924001E-002,5.924001E-002,5.924001E-002,5.924001E-002,
   **   ~~~   ** Air System Named = CENTRAL SYSTEM did not converge for energy
   **   ~~~   ** Check values should be zero. Most Recent values listed first.
   **   ~~~   ** Demand-to-Supply interface energy check value iteration history trace: 1166.895488,1166.895488,1166.895488,1166.895488,1166.895488,1166.895488,1166.895488,1166.895488,1166.895488,1166.895488,
   **   ~~~   ** Supply-to-demand interface deck 1 energy check value iteration history trace: 2013.326602,2013.326602,2013.326602,2013.326602,2013.326602,2013.326602,2013.326601,2013.326601,2013.326601,2013.326601,
   ************* Simulation Error Summary *************
   ** Warning ** The following Report Variables were requested but not generated -- check.rdd file
   **   ~~~   ** Either the IDF did not contain these elements, the variable name is misspelled,
   **   ~~~   ** or the requested variable is an advanced output which requires Output : Diagnostics, DisplayAdvancedReportVariables;
   ************* Key=*, VarName=BASEBOARD TOTAL HEATING ENERGY, Frequency=
   ************* Key=*, VarName=WATER HEATER NATURALGAS ENERGY, Frequency=
   ************* Key=*, VarName=COOLING COIL TOTAL HEATING ENERGY, Frequency=
   ************* There are 34 unused schedules in input.
   ************* There are 388 unused week schedules in input.
   ************* There are 396 unused day schedules in input.
   ************* Use Output:Diagnostics,DisplayUnusedSchedules; to see them.
   *************
   ************* ===== Recurring Error Summary =====
   ************* The following recurring error messages occurred.
   *************
   *************  ** Warning ** "TOTAL HOT WATER LOAD" - Target water temperature should be less than or equal to the hot water temperature error continues...
   *************  **   ~~~   **   This error occurred 132891 total times;
   *************  **   ~~~   **   during Warmup 0 times;
   *************  **   ~~~   **   during Sizing 0 times.
   *************  **   ~~~   **   Max=9.117706  Min=5.576189E-004
   *************
   *************  ** Warning ** SimHVAC: Exceeding Maximum iterations for all HVAC loops, during ANNUAL continues
   *************  **   ~~~   **   This error occurred 5 total times;
   *************  **   ~~~   **   during Warmup 0 times;
   *************  **   ~~~   **   during Sizing 0 times.
   *************
   *************
   ************* ===== Final Error Summary =====
   ************* The following error categories occurred.  Consider correcting or noting.
   ************* Loads Initialization did not Converge
   ************* ..1) very high thermal mass such as very thick concrete (solution: increase max number of warmup
   ************* ..   days in the BUILDING object);
   ************* ..2) moderate mass and inadequate space conditioning such that the building keeps getting warmer
   ************* ..   and warmer on successive days (solution: add HVAC, check building thermal properties,
   ************* ..   check if infiltration is included, make sure HVAC properly controlled);
   ************* ..3) a soil layer modeled below the concrete slab - (solution remove this layer and read about
   ************* ..   ground temperatures in the Auxiliary Programs document).
   ************* ..4) unreasonable (too small) limits in the BUILDING object for temperature (.4 default) or
   ************* ..   loads tolerances (.04 default)
   ************* Nominally Unused Constructions
   ************* ..The nominally unused constructions warning is provided to alert you to potential conditions that can cause
   ************* ..extra time during simulation. Each construction is calculated by the algorithm indicated in the HeatBalanceAlgorithm
   ************* ..object. You may remove the constructions indicated (when you use the DisplayExtraWarnings option).
   *************
   ************* EnergyPlus Warmup Error Summary. During Warmup: 1 Warning; 2 Severe Errors.
   ************* EnergyPlus Sizing Error Summary. During Sizing: 4 Warning; 0 Severe Errors.
   ************* EnergyPlus Completed Successfully-- 132928 Warning; 2 Severe Errors; Elapsed Time=00hr 06min 24.69sec
