Program Version,EnergyPlus, Version 22.2.0-c249759bad, YMD=2023.09.01 19:06,
   ************* Beginning Zone Sizing Calculations
   ** Warning ** ProcessScheduleInput: Schedule:Constant="ALWAYS ON DISCRETE", Schedule Type Limits Name="ONOFF" not found -- will not be validated
   ** Warning ** Foundation:Kiva="KIVA FOUNDATION", no Interior Horizontal Insulation Material Name defined
   **   ~~~   ** Interior Horizontal Insulation Depth will not be used.
   ** Warning ** CheckUsedConstructions: There are 15 nominally unused constructions in input.
   **   ~~~   ** Each Unused construction is shown.
   ************* Construction=INTERIOR FLOOR
   ************* Construction=INTERIOR WINDOW
   ************* Construction=EXTERIOR DOOR
   ************* Construction=INTERIOR DOOR
   ************* Construction=GABLE CONSTRUCTION
   ************* Construction=CRAWL_FLOOR
   ************* Construction=INSULATED PIPE
   ************* Construction=PLAIN PIPE
   ************* Construction=TDD PIPE
   ************* Construction=TDD DOME
   ************* Construction=TDD DIFFUSER
   ************* Construction=CRAWL WALL
   ************* Construction=CEILING-FLOOR-LAYER
   ************* Construction=SLAB CONSTRUCTION W FULL R10 INSULATION
   ************* Construction=SLAB CONSTRUCTION W FULL R5 INSULATION
   ** Warning ** GetDXCoils: Coil:Heating:DX:SingleSpeed="DX_HEATING_COIL" curve values
   **   ~~~   ** ... Defrost Energy Input Ratio Function of Temperature Curve Name = DEFROSTEIR output is not equal to 1.0 (+ or - 10%) at rated conditions.
   **   ~~~   ** ... Curve output at rated conditions = 0.152
   ************* Beginning System Sizing Calculations
   ************* Beginning Plant Sizing Calculations
   ** Warning ** SizeDXCoil Coil:Cooling:DX:SingleSpeed DX_COOLING_COIL
   **   ~~~   ** ...Gross Rated Total Cooling Capacity [W] will be limited by the maximum rated volume flow per rated total capacity ratio.
   **   ~~~   ** ...DX coil volume flow rate ( m3/s ) = 0.476307
   **   ~~~   ** ...Requested capacity ( W ) = 7548.782
   **   ~~~   ** ...Requested flow/capacity ratio ( m3/s/W ) = 6.309E-005
   **   ~~~   ** ...Maximum flow/capacity ratio ( m3/s/W ) = 6.041E-005
   **   ~~~   ** ...Adjusted capacity ( W ) = 7884.583
   ** Warning ** Coil:WaterHeating:AirToWaterHeatPump:Wrapped "HEAT PUMP WATER HEATER EVAPORATOR": Rated air volume flow rate per watt of rated total water heating capacity is out of range
   **   ~~~   ** Min Rated Vol Flow Per Watt=[4.027E-005], Rated Vol Flow Per Watt=[1.510E-004], Max Rated Vol Flow Per Watt=[8.056E-005]. See Input-Output Reference Manual for valid range.
   ************* SizeFan: : Potential issue with equipment sizing for Fan:OnOff HEAT PUMP WATER HEATER FAN
   **   ~~~   ** User-Specified Maximum Flow Rate [m3/s] = 0.22653
   **   ~~~   ** differs from Design Size Maximum Flow Rate [m3/s] = 7.55250E-002
   **   ~~~   ** This may, or may not, indicate mismatched component sizes.
   **   ~~~   ** Verify that the value entered is intended and is consistent with other components.
   ** Warning ** Water heater = WATER HEATER TANK:  Recovery Efficiency and Energy Factor could not be calculated during the test for standard ratings
   **   ~~~   ** Setpoint was never recovered and/or heater never turned on
   ** Warning ** Check input. Pump nominal power or motor efficiency is set to 0, for pump=MAINS PRESSURE
   ** Warning ** Output:Meter: invalid Key Name="ELECTRIC_RANGE:INTERIOREQUIPMENT:ELECTRICITY" - not found.
   ** Warning ** Output:Meter: invalid Key Name="ELECTRIC_DRYER:INTERIOREQUIPMENT:ELECTRICITY" - not found.
   ** Warning ** Output:Meter: invalid Key Name="HEATRECOVERY:ELECTRICITY" - not found.
   ** Warning ** Output:Meter: invalid Key Name="HEATING:NATURALGAS" - not found.
   ** Warning ** Output:Meter: invalid Key Name="WATERSYSTEMS:NATURALGAS" - not found.
   ** Warning ** Output:Meter: invalid Key Name="PROPANE:FACILITY" - not found.
   ** Warning ** Output:Meter: invalid Key Name="HEATING:PROPANE" - not found.
   ************* Testing Individual Branch Integrity
   ************* All Branches passed integrity testing
   ************* Testing Individual Supply Air Path Integrity
   ************* All Supply Air Paths passed integrity testing
   ************* Testing Individual Return Air Path Integrity
   ************* All Return Air Paths passed integrity testing
   ************* No node connection errors were found.
   ************* Beginning Simulation
   ** Warning ** AirflowNetwork::Solver::validate_distribution: Heat pump water heater is simulated along with an AirflowNetwork but is not included in the AirflowNetwork.
   ** Warning ** CalcEquipmentFlowRates: "TOTAL HOT WATER LOAD" - Target water temperature is greater than the hot water temperature by (1.27 C)
   **   ~~~   **  Environment=EXTREME_WINTER, at Simulation time=12/22 06:45 - 07:00
   **   ~~~   ** ...target water temperature     = 53.33 C
   **   ~~~   ** ...hot water temperature        = 52.06 C
   **   ~~~   ** ...Target water temperature should be less than or equal to the hot water temperature. Verify temperature setpoints and schedules.
   ** Warning ** SimHVAC: Maximum iterations (20) exceeded for all HVAC loops, at EXTREME_WINTER, 12/28 09:00 - 09:15
   **   ~~~   ** The solution for one or more of the Air Loop HVAC systems did not appear to converge
   **   ~~~   ** Air System Named = CENTRAL SYSTEM did not converge for mass flow rate
   **   ~~~   ** Check values should be zero. Most Recent values listed first.
   **   ~~~   ** Demand-to-Supply interface mass flow rate check value iteration history trace: 7.421599E-002,7.421599E-002,7.421599E-002,7.421599E-002,7.421599E-002,7.421599E-002,7.421599E-002,7.421599E-002,7.421599E-002,7.421599E-002,
   **   ~~~   ** Supply-to-demand interface deck 1 mass flow rate check value iteration history trace: 7.421599E-002,7.421599E-002,7.421599E-002,7.421599E-002,7.421599E-002,7.421599E-002,7.421599E-002,7.421599E-002,7.421599E-002,7.421599E-002,
   **   ~~~   ** Air System Named = CENTRAL SYSTEM did not converge for energy
   **   ~~~   ** Check values should be zero. Most Recent values listed first.
   **   ~~~   ** Demand-to-Supply interface energy check value iteration history trace: 1470.701550,1470.701550,1470.701550,1470.701550,1470.701550,1470.701550,1470.701550,1470.701550,1470.701549,1470.701549,
   **   ~~~   ** Supply-to-demand interface deck 1 energy check value iteration history trace: 2482.279504,2482.279503,2482.279503,2482.279503,2482.279503,2482.279503,2482.279503,2482.279503,2482.279503,2482.279503,
   ** Warning ** SimHVAC: Maximum iterations (20) exceeded for all HVAC loops, at ANNUAL, 01/02 09:00 - 09:15
   **   ~~~   ** The solution for one or more of the Air Loop HVAC systems did not appear to converge
   **   ~~~   ** Air System Named = CENTRAL SYSTEM did not converge for mass flow rate
   **   ~~~   ** Check values should be zero. Most Recent values listed first.
   **   ~~~   ** Demand-to-Supply interface mass flow rate check value iteration history trace: 8.450475E-002,8.450475E-002,8.450475E-002,8.450475E-002,8.450475E-002,8.450475E-002,8.450475E-002,8.450475E-002,8.450475E-002,8.450475E-002,
   **   ~~~   ** Supply-to-demand interface deck 1 mass flow rate check value iteration history trace: 8.450475E-002,8.450475E-002,8.450475E-002,8.450475E-002,8.450475E-002,8.450475E-002,8.450475E-002,8.450475E-002,8.450475E-002,8.450475E-002,
   **   ~~~   ** Air System Named = CENTRAL SYSTEM did not converge for energy
   **   ~~~   ** Check values should be zero. Most Recent values listed first.
   **   ~~~   ** Demand-to-Supply interface energy check value iteration history trace: 1674.549973,1674.549973,1674.549972,1674.549972,1674.549972,1674.549972,1674.549972,1674.549972,1674.549972,1674.549972,
   **   ~~~   ** Supply-to-demand interface deck 1 energy check value iteration history trace: 2604.307252,2604.307252,2604.307252,2604.307252,2604.307252,2604.307252,2604.307251,2604.307251,2604.307251,2604.307251,
   ** Warning ** SimHVAC: Maximum iterations (20) exceeded for all HVAC loops, at ANNUAL, 01/08 09:00 - 09:15
   **   ~~~   ** The solution for one or more of the Air Loop HVAC systems did not appear to converge
   **   ~~~   ** Air System Named = CENTRAL SYSTEM did not converge for mass flow rate
   **   ~~~   ** Check values should be zero. Most Recent values listed first.
   **   ~~~   ** Demand-to-Supply interface mass flow rate check value iteration history trace: 6.294058E-002,6.294058E-002,6.294058E-002,6.294058E-002,6.294058E-002,6.294058E-002,6.294058E-002,6.294058E-002,6.294058E-002,6.294058E-002,
   **   ~~~   ** Supply-to-demand interface deck 1 mass flow rate check value iteration history trace: 6.294058E-002,6.294058E-002,6.294058E-002,6.294058E-002,6.294058E-002,6.294058E-002,6.294058E-002,6.294058E-002,6.294058E-002,6.294058E-002,
   **   ~~~   ** Air System Named = CENTRAL SYSTEM did not converge for energy
   **   ~~~   ** Check values should be zero. Most Recent values listed first.
   **   ~~~   ** Demand-to-Supply interface energy check value iteration history trace: 1247.224634,1247.224634,1247.224634,1247.224634,1247.224634,1247.224634,1247.224634,1247.224634,1247.224634,1247.224634,
   **   ~~~   ** Supply-to-demand interface deck 1 energy check value iteration history trace: 2175.104645,2175.104645,2175.104645,2175.104645,2175.104645,2175.104645,2175.104645,2175.104645,2175.104645,2175.104645,
   ** Warning ** SimHVAC: Maximum iterations (20) exceeded for all HVAC loops, at ANNUAL, 01/11 08:15 - 08:30
   **   ~~~   ** The solution for one or more of the Air Loop HVAC systems did not appear to converge
   **   ~~~   ** Air System Named = CENTRAL SYSTEM did not converge for mass flow rate
   **   ~~~   ** Check values should be zero. Most Recent values listed first.
   **   ~~~   ** Demand-to-Supply interface mass flow rate check value iteration history trace: 5.245303E-002,5.245303E-002,5.245303E-002,5.245303E-002,5.245303E-002,5.245303E-002,5.245303E-002,5.245303E-002,5.245303E-002,5.245303E-002,
   **   ~~~   ** Supply-to-demand interface deck 1 mass flow rate check value iteration history trace: 5.245303E-002,5.245303E-002,5.245303E-002,5.245303E-002,5.245303E-002,5.245303E-002,5.245303E-002,5.245303E-002,5.245303E-002,5.245303E-002,
   **   ~~~   ** Air System Named = CENTRAL SYSTEM did not converge for energy
   **   ~~~   ** Check values should be zero. Most Recent values listed first.
   **   ~~~   ** Demand-to-Supply interface energy check value iteration history trace: 1039.012752,1039.012752,1039.012752,1039.012752,1039.012752,1039.012752,1039.012752,1039.012752,1039.012752,1039.012752,
   **   ~~~   ** Supply-to-demand interface deck 1 energy check value iteration history trace: 1852.045034,1852.045034,1852.045034,1852.045034,1852.045034,1852.045034,1852.045034,1852.045034,1852.045034,1852.045034,
   ** Warning ** SimHVAC: Maximum iterations (20) exceeded for all HVAC loops, at ANNUAL, 01/11 08:45 - 09:00
   **   ~~~   ** The solution for one or more of the Air Loop HVAC systems did not appear to converge
   **   ~~~   ** Air System Named = CENTRAL SYSTEM did not converge for mass flow rate
   **   ~~~   ** Check values should be zero. Most Recent values listed first.
   **   ~~~   ** Demand-to-Supply interface mass flow rate check value iteration history trace: 5.776028E-002,5.776028E-002,5.776028E-002,5.776028E-002,5.776028E-002,5.776028E-002,5.776028E-002,5.776028E-002,5.776028E-002,5.776028E-002,
   **   ~~~   ** Supply-to-demand interface deck 1 mass flow rate check value iteration history trace: 5.776028E-002,5.776028E-002,5.776028E-002,5.776028E-002,5.776028E-002,5.776028E-002,5.776028E-002,5.776028E-002,5.776028E-002,5.776028E-002,
   **   ~~~   ** Air System Named = CENTRAL SYSTEM did not converge for energy
   **   ~~~   ** Check values should be zero. Most Recent values listed first.
   **   ~~~   ** Demand-to-Supply interface energy check value iteration history trace: 1143.479813,1143.479813,1143.479813,1143.479813,1143.479813,1143.479813,1143.479813,1143.479813,1143.479813,1143.479813,
   **   ~~~   ** Supply-to-demand interface deck 1 energy check value iteration history trace: 2039.409967,2039.409967,2039.409966,2039.409966,2039.409966,2039.409966,2039.409966,2039.409966,2039.409966,2039.409966,
   ** Warning ** SimHVAC: Maximum iterations (20) exceeded for all HVAC loops, at ANNUAL, 01/12 10:00 - 10:15
   **   ~~~   ** The solution for one or more of the Air Loop HVAC systems did not appear to converge
   **   ~~~   ** Air System Named = CENTRAL SYSTEM did not converge for mass flow rate
   **   ~~~   ** Check values should be zero. Most Recent values listed first.
   **   ~~~   ** Demand-to-Supply interface mass flow rate check value iteration history trace: 6.140982E-002,6.140982E-002,6.140982E-002,6.140982E-002,6.140982E-002,6.140982E-002,6.140982E-002,6.140982E-002,6.140982E-002,6.140982E-002,
   **   ~~~   ** Supply-to-demand interface deck 1 mass flow rate check value iteration history trace: 6.140982E-002,6.140982E-002,6.140982E-002,6.140982E-002,6.140982E-002,6.140982E-002,6.140982E-002,6.140982E-002,6.140982E-002,6.140982E-002,
   **   ~~~   ** Air System Named = CENTRAL SYSTEM did not converge for energy
   **   ~~~   ** Check values should be zero. Most Recent values listed first.
   **   ~~~   ** Demand-to-Supply interface energy check value iteration history trace: 1210.569779,1210.569779,1210.569779,1210.569779,1210.569779,1210.569779,1210.569779,1210.569779,1210.569779,1210.569779,
   **   ~~~   ** Supply-to-demand interface deck 1 energy check value iteration history trace: 2154.528577,2154.528577,2154.528577,2154.528577,2154.528577,2154.528577,2154.528577,2154.528577,2154.528577,2154.528577,
   ** Warning ** SimHVAC: Maximum iterations (20) exceeded for all HVAC loops, at ANNUAL, 01/12 11:49 - 11:52
   **   ~~~   ** The solution for one or more of the Air Loop HVAC systems did not appear to converge
   **   ~~~   ** Air System Named = CENTRAL SYSTEM did not converge for mass flow rate
   **   ~~~   ** Check values should be zero. Most Recent values listed first.
   **   ~~~   ** Demand-to-Supply interface mass flow rate check value iteration history trace: 5.492503E-002,5.492503E-002,5.492503E-002,5.492503E-002,5.492503E-002,5.492503E-002,5.492503E-002,5.492503E-002,5.492503E-002,5.492503E-002,
   **   ~~~   ** Supply-to-demand interface deck 1 mass flow rate check value iteration history trace: 5.492503E-002,5.492503E-002,5.492503E-002,5.492503E-002,5.492503E-002,5.492503E-002,5.492503E-002,5.492503E-002,5.492503E-002,5.492503E-002,
   **   ~~~   ** Air System Named = CENTRAL SYSTEM did not converge for energy
   **   ~~~   ** Check values should be zero. Most Recent values listed first.
   **   ~~~   ** Demand-to-Supply interface energy check value iteration history trace: 1081.648488,1081.648488,1081.648488,1081.648488,1081.648488,1081.648488,1081.648488,1081.648488,1081.648488,1081.648488,
   **   ~~~   ** Supply-to-demand interface deck 1 energy check value iteration history trace: 1948.275708,1948.275708,1948.275708,1948.275708,1948.275708,1948.275708,1948.275708,1948.275708,1948.275708,1948.275708,
   ** Warning ** SimHVAC: Maximum iterations (20) exceeded for all HVAC loops, at ANNUAL, 01/18 08:15 - 08:22
   **   ~~~   ** The solution for one or more of the Air Loop HVAC systems did not appear to converge
   **   ~~~   ** Air System Named = CENTRAL SYSTEM did not converge for mass flow rate
   **   ~~~   ** Check values should be zero. Most Recent values listed first.
   **   ~~~   ** Demand-to-Supply interface mass flow rate check value iteration history trace: 6.169573E-002,6.169573E-002,6.169573E-002,6.169573E-002,6.169573E-002,6.169573E-002,6.169573E-002,6.169573E-002,6.169573E-002,6.169573E-002,
   **   ~~~   ** Supply-to-demand interface deck 1 mass flow rate check value iteration history trace: 6.169573E-002,6.169573E-002,6.169573E-002,6.169573E-002,6.169573E-002,6.169573E-002,6.169573E-002,6.169573E-002,6.169573E-002,6.169573E-002,
   **   ~~~   ** Air System Named = CENTRAL SYSTEM did not converge for energy
   **   ~~~   ** Check values should be zero. Most Recent values listed first.
   **   ~~~   ** Demand-to-Supply interface energy check value iteration history trace: 1222.572551,1222.572551,1222.572551,1222.572551,1222.572551,1222.572551,1222.572551,1222.572551,1222.572551,1222.572550,
   **   ~~~   ** Supply-to-demand interface deck 1 energy check value iteration history trace: 2096.959509,2096.959509,2096.959509,2096.959509,2096.959509,2096.959509,2096.959509,2096.959509,2096.959508,2096.959508,
   ** Warning ** SimHVAC: Maximum iterations (20) exceeded for all HVAC loops, at ANNUAL, 01/21 12:55 - 13:00
   **   ~~~   ** The solution for one or more of the Air Loop HVAC systems did not appear to converge
   **   ~~~   ** Air System Named = CENTRAL SYSTEM did not converge for mass flow rate
   **   ~~~   ** Check values should be zero. Most Recent values listed first.
   **   ~~~   ** Demand-to-Supply interface mass flow rate check value iteration history trace: 5.507342E-002,5.507342E-002,5.507342E-002,5.507342E-002,5.507342E-002,5.507342E-002,5.507342E-002,5.507342E-002,5.507342E-002,5.507342E-002,
   **   ~~~   ** Supply-to-demand interface deck 1 mass flow rate check value iteration history trace: 5.507342E-002,5.507342E-002,5.507342E-002,5.507342E-002,5.507342E-002,5.507342E-002,5.507342E-002,5.507342E-002,5.507342E-002,5.507342E-002,
   **   ~~~   ** Air System Named = CENTRAL SYSTEM did not converge for energy
   **   ~~~   ** Check values should be zero. Most Recent values listed first.
   **   ~~~   ** Demand-to-Supply interface energy check value iteration history trace: 1091.411848,1091.411848,1091.411848,1091.411848,1091.411848,1091.411848,1091.411848,1091.411848,1091.411848,1091.411848,
   **   ~~~   ** Supply-to-demand interface deck 1 energy check value iteration history trace: 1917.553982,1917.553982,1917.553982,1917.553981,1917.553981,1917.553981,1917.553981,1917.553981,1917.553981,1917.553981,
   ** Warning ** SimHVAC: Maximum iterations (20) exceeded for all HVAC loops, at ANNUAL, 01/22 09:30 - 09:33
   **   ~~~   ** The solution for one or more of the Air Loop HVAC systems did not appear to converge
   **   ~~~   ** Air System Named = CENTRAL SYSTEM did not converge for mass flow rate
   **   ~~~   ** Check values should be zero. Most Recent values listed first.
   **   ~~~   ** Demand-to-Supply interface mass flow rate check value iteration history trace: 6.364109E-002,6.364109E-002,6.364109E-002,6.364109E-002,6.364109E-002,6.364109E-002,6.364109E-002,6.364109E-002,6.364109E-002,6.364109E-002,
   **   ~~~   ** Supply-to-demand interface deck 1 mass flow rate check value iteration history trace: 6.364109E-002,6.364109E-002,6.364109E-002,6.364109E-002,6.364109E-002,6.364109E-002,6.364109E-002,6.364109E-002,6.364109E-002,6.364109E-002,
   **   ~~~   ** Air System Named = CENTRAL SYSTEM did not converge for energy
   **   ~~~   ** Check values should be zero. Most Recent values listed first.
   **   ~~~   ** Demand-to-Supply interface energy check value iteration history trace: 1261.173684,1261.173684,1261.173684,1261.173684,1261.173684,1261.173684,1261.173684,1261.173684,1261.173684,1261.173684,
   **   ~~~   ** Supply-to-demand interface deck 1 energy check value iteration history trace: 2175.063521,2175.063521,2175.063521,2175.063521,2175.063520,2175.063520,2175.063520,2175.063520,2175.063520,2175.063520,
   ** Warning ** SimHVAC: Maximum iterations (20) exceeded for all HVAC loops, at ANNUAL, 02/06 08:45 - 08:48
   **   ~~~   ** The solution for one or more of the Air Loop HVAC systems did not appear to converge
   **   ~~~   ** Air System Named = CENTRAL SYSTEM did not converge for mass flow rate
   **   ~~~   ** Check values should be zero. Most Recent values listed first.
   **   ~~~   ** Demand-to-Supply interface mass flow rate check value iteration history trace: 6.126067E-002,6.126067E-002,6.126067E-002,6.126067E-002,6.126067E-002,6.126067E-002,6.126067E-002,6.126067E-002,6.126067E-002,6.126067E-002,
   **   ~~~   ** Supply-to-demand interface deck 1 mass flow rate check value iteration history trace: 6.126067E-002,6.126067E-002,6.126067E-002,6.126067E-002,6.126067E-002,6.126067E-002,6.126067E-002,6.126067E-002,6.126067E-002,6.126067E-002,
   **   ~~~   ** Air System Named = CENTRAL SYSTEM did not converge for energy
   **   ~~~   ** Check values should be zero. Most Recent values listed first.
   **   ~~~   ** Demand-to-Supply interface energy check value iteration history trace: 1213.968439,1213.968439,1213.968439,1213.968439,1213.968439,1213.968439,1213.968439,1213.968439,1213.968439,1213.968439,
   **   ~~~   ** Supply-to-demand interface deck 1 energy check value iteration history trace: 2219.574746,2219.574746,2219.574746,2219.574746,2219.574746,2219.574746,2219.574745,2219.574745,2219.574745,2219.574745,
   ** Warning ** SimHVAC: Maximum iterations (20) exceeded for all HVAC loops, at ANNUAL, 04/07 13:36 - 13:39
   **   ~~~   ** The solution for one or more of the Air Loop HVAC systems did not appear to converge
   **   ~~~   ** Air System Named = CENTRAL SYSTEM did not converge for mass flow rate
   **   ~~~   ** Check values should be zero. Most Recent values listed first.
   **   ~~~   ** Demand-to-Supply interface mass flow rate check value iteration history trace: 0.269782,0.269782,0.269782,0.269782,0.269782,0.269782,0.269782,0.269782,0.269782,0.269782,
   **   ~~~   ** Supply-to-demand interface deck 1 mass flow rate check value iteration history trace: 0.269782,0.269782,0.269782,0.269782,0.269782,0.269782,0.269782,0.269782,0.269782,0.269782,
   **   ~~~   ** Air System Named = CENTRAL SYSTEM did not converge for energy
   **   ~~~   ** Check values should be zero. Most Recent values listed first.
   **   ~~~   ** Demand-to-Supply interface energy check value iteration history trace: 6437.150137,6437.150137,6437.150138,6437.150138,6437.150138,6437.150139,6437.150139,6437.150140,6437.150140,6437.150140,
   **   ~~~   ** Supply-to-demand interface deck 1 energy check value iteration history trace: 2811.599032,2811.599032,2811.599032,2811.599032,2811.599032,2811.599032,2811.599033,2811.599033,2811.599033,2811.599033,
   ** Warning ** SimHVAC: Maximum iterations (20) exceeded for all HVAC loops, at ANNUAL, 04/17 07:58 - 08:00
   **   ~~~   ** The solution for one or more of the Air Loop HVAC systems did not appear to converge
   **   ~~~   ** Air System Named = CENTRAL SYSTEM did not converge for mass flow rate
   **   ~~~   ** Check values should be zero. Most Recent values listed first.
   **   ~~~   ** Demand-to-Supply interface mass flow rate check value iteration history trace: 6.267442E-002,6.267442E-002,6.267442E-002,6.267442E-002,6.267442E-002,6.267442E-002,6.267442E-002,6.267442E-002,6.267442E-002,6.267442E-002,
   **   ~~~   ** Supply-to-demand interface deck 1 mass flow rate check value iteration history trace: 6.267442E-002,6.267442E-002,6.267442E-002,6.267442E-002,6.267442E-002,6.267442E-002,6.267442E-002,6.267442E-002,6.267442E-002,6.267442E-002,
   **   ~~~   ** Air System Named = CENTRAL SYSTEM did not converge for energy
   **   ~~~   ** Check values should be zero. Most Recent values listed first.
   **   ~~~   ** Demand-to-Supply interface energy check value iteration history trace: 1473.932829,1473.932830,1473.932830,1473.932830,1473.932830,1473.932831,1473.932831,1473.932831,1473.932831,1473.932832,
   **   ~~~   ** Supply-to-demand interface deck 1 energy check value iteration history trace: 733.991579,733.991579,733.991579,733.991579,733.991579,733.991579,733.991579,733.991579,733.991580,733.991580,
   ** Warning ** SimHVAC: Maximum iterations (20) exceeded for all HVAC loops, at ANNUAL, 11/17 21:38 - 21:45
   **   ~~~   ** The solution for one or more of the Air Loop HVAC systems did not appear to converge
   **   ~~~   ** Air System Named = CENTRAL SYSTEM did not converge for mass flow rate
   **   ~~~   ** Check values should be zero. Most Recent values listed first.
   **   ~~~   ** Demand-to-Supply interface mass flow rate check value iteration history trace: 0.175279,0.175279,0.175279,0.175279,0.175279,0.175279,0.175279,0.175279,0.175279,0.175279,
   **   ~~~   ** Supply-to-demand interface deck 1 mass flow rate check value iteration history trace: 0.175279,0.175279,0.175279,0.175279,0.175279,0.175279,0.175279,0.175279,0.175279,0.175279,
   **   ~~~   ** Air System Named = CENTRAL SYSTEM did not converge for energy
   **   ~~~   ** Check values should be zero. Most Recent values listed first.
   **   ~~~   ** Demand-to-Supply interface energy check value iteration history trace: 4189.693316,4189.693317,4189.693318,4189.693318,4189.693319,4189.693319,4189.693320,4189.693321,4189.693321,4189.693322,
   **   ~~~   ** Supply-to-demand interface deck 1 energy check value iteration history trace: 1941.412032,1941.412033,1941.412033,1941.412033,1941.412034,1941.412034,1941.412034,1941.412035,1941.412035,1941.412035,
   ************* Simulation Error Summary *************
   ** Warning ** The following Report Variables were requested but not generated -- check.rdd file
   **   ~~~   ** Either the IDF did not contain these elements, the variable name is misspelled,
   **   ~~~   ** or the requested variable is an advanced output which requires Output : Diagnostics, DisplayAdvancedReportVariables;
   ************* Key=*, VarName=BASEBOARD TOTAL HEATING ENERGY, Frequency=
   ************* Key=*, VarName=WATER HEATER NATURALGAS ENERGY, Frequency=
   ************* Key=*, VarName=COOLING COIL TOTAL HEATING ENERGY, Frequency=
   ************* There are 34 unused schedules in input.
   ************* There are 388 unused week schedules in input.
   ************* There are 397 unused day schedules in input.
   ************* Use Output:Diagnostics,DisplayUnusedSchedules; to see them.
   *************
   ************* ===== Recurring Error Summary =====
   ************* The following recurring error messages occurred.
   *************
   *************  ** Warning ** "TOTAL HOT WATER LOAD" - Target water temperature should be less than or equal to the hot water temperature error continues...
   *************  **   ~~~   **   This error occurred 141033 total times;
   *************  **   ~~~   **   during Warmup 0 times;
   *************  **   ~~~   **   during Sizing 0 times.
   *************  **   ~~~   **   Max=9.478064  Min=3.131836E-005
   *************
   *************  ** Warning ** SimHVAC: Exceeding Maximum iterations for all HVAC loops, during ANNUAL continues
   *************  **   ~~~   **   This error occurred 7 total times;
   *************  **   ~~~   **   during Warmup 0 times;
   *************  **   ~~~   **   during Sizing 0 times.
   *************
   *************
   ************* ===== Final Error Summary =====
   ************* The following error categories occurred.  Consider correcting or noting.
   ************* Nominally Unused Constructions
   ************* ..The nominally unused constructions warning is provided to alert you to potential conditions that can cause
   ************* ..extra time during simulation. Each construction is calculated by the algorithm indicated in the HeatBalanceAlgorithm
   ************* ..object. You may remove the constructions indicated (when you use the DisplayExtraWarnings option).
   *************
   ************* EnergyPlus Warmup Error Summary. During Warmup: 1 Warning; 0 Severe Errors.
   ************* EnergyPlus Sizing Error Summary. During Sizing: 4 Warning; 0 Severe Errors.
   ************* EnergyPlus Completed Successfully-- 141072 Warning; 0 Severe Errors; Elapsed Time=00hr 01min 56.74sec
