Program Version,EnergyPlus, Version 22.2.0-c249759bad, YMD=2023.09.01 15:20,
   ************* Beginning Zone Sizing Calculations
   ** Warning ** ProcessScheduleInput: Schedule:Constant="ALWAYS ON DISCRETE", Schedule Type Limits Name="ONOFF" not found -- will not be validated
   ** Warning ** Foundation:Kiva="KIVA FOUNDATION", no Interior Horizontal Insulation Material Name defined
   **   ~~~   ** Interior Horizontal Insulation Depth will not be used.
   ** Warning ** CheckUsedConstructions: There are 15 nominally unused constructions in input.
   **   ~~~   ** Each Unused construction is shown.
   ************* Construction=INTERIOR FLOOR
   ************* Construction=INTERIOR WINDOW
   ************* Construction=EXTERIOR DOOR
   ************* Construction=INTERIOR DOOR
   ************* Construction=GABLE CONSTRUCTION
   ************* Construction=CRAWL_FLOOR
   ************* Construction=INSULATED PIPE
   ************* Construction=PLAIN PIPE
   ************* Construction=TDD PIPE
   ************* Construction=TDD DOME
   ************* Construction=TDD DIFFUSER
   ************* Construction=CRAWL WALL
   ************* Construction=CEILING-FLOOR-LAYER
   ************* Construction=SLAB CONSTRUCTION W FULL R10 INSULATION
   ************* Construction=SLAB CONSTRUCTION W FULL R5 INSULATION
   ** Warning ** GetDXCoils: Coil:Heating:DX:SingleSpeed="DX_HEATING_COIL" curve values
   **   ~~~   ** ... Defrost Energy Input Ratio Function of Temperature Curve Name = DEFROSTEIR output is not equal to 1.0 (+ or - 10%) at rated conditions.
   **   ~~~   ** ... Curve output at rated conditions = 0.152
   ************* Beginning System Sizing Calculations
   ************* Beginning Plant Sizing Calculations
   ** Warning ** SizeDXCoil Coil:Cooling:DX:SingleSpeed DX_COOLING_COIL
   **   ~~~   ** ...Gross Rated Total Cooling Capacity [W] will be limited by the maximum rated volume flow per rated total capacity ratio.
   **   ~~~   ** ...DX coil volume flow rate ( m3/s ) = 0.573932
   **   ~~~   ** ...Requested capacity ( W ) = 8143.033
   **   ~~~   ** ...Requested flow/capacity ratio ( m3/s/W ) = 7.048E-005
   **   ~~~   ** ...Maximum flow/capacity ratio ( m3/s/W ) = 6.041E-005
   **   ~~~   ** ...Adjusted capacity ( W ) = 9500.613
   ** Warning ** Coil:WaterHeating:AirToWaterHeatPump:Wrapped "HEAT PUMP WATER HEATER EVAPORATOR": Rated air volume flow rate per watt of rated total water heating capacity is out of range
   **   ~~~   ** Min Rated Vol Flow Per Watt=[4.027E-005], Rated Vol Flow Per Watt=[1.386E-004], Max Rated Vol Flow Per Watt=[8.056E-005]. See Input-Output Reference Manual for valid range.
   ** Warning ** Water heater = WATER HEATER TANK:  Recovery Efficiency and Energy Factor could not be calculated during the test for standard ratings
   **   ~~~   ** Setpoint was never recovered and/or heater never turned on
   ** Warning ** Check input. Pump nominal power or motor efficiency is set to 0, for pump=MAINS PRESSURE
   ** Warning ** Output:Meter: invalid Key Name="ELECTRIC_RANGE:INTERIOREQUIPMENT:ELECTRICITY" - not found.
   ** Warning ** Output:Meter: invalid Key Name="ELECTRIC_DRYER:INTERIOREQUIPMENT:ELECTRICITY" - not found.
   ** Warning ** Output:Meter: invalid Key Name="HEATRECOVERY:ELECTRICITY" - not found.
   ** Warning ** Output:Meter: invalid Key Name="HEATING:NATURALGAS" - not found.
   ** Warning ** Output:Meter: invalid Key Name="WATERSYSTEMS:NATURALGAS" - not found.
   ** Warning ** Output:Meter: invalid Key Name="PROPANE:FACILITY" - not found.
   ** Warning ** Output:Meter: invalid Key Name="HEATING:PROPANE" - not found.
   ************* Testing Individual Branch Integrity
   ************* All Branches passed integrity testing
   ************* Testing Individual Supply Air Path Integrity
   ************* All Supply Air Paths passed integrity testing
   ************* Testing Individual Return Air Path Integrity
   ************* All Return Air Paths passed integrity testing
   ************* No node connection errors were found.
   ************* Beginning Simulation
   ** Warning ** AirflowNetwork::Solver::validate_distribution: Heat pump water heater is simulated along with an AirflowNetwork but is not included in the AirflowNetwork.
   ** Warning ** CalcEquipmentFlowRates: "TOTAL HOT WATER LOAD" - Target water temperature is greater than the hot water temperature by (1.69 C)
   **   ~~~   **  Environment=EXTREME_WINTER, at Simulation time=12/22 06:00 - 06:15
   **   ~~~   ** ...target water temperature     = 53.33 C
   **   ~~~   ** ...hot water temperature        = 51.64 C
   **   ~~~   ** ...Target water temperature should be less than or equal to the hot water temperature. Verify temperature setpoints and schedules.
   ** Warning ** SimHVAC: Maximum iterations (20) exceeded for all HVAC loops, at EXTREME_WINTER, 12/28 18:15 - 18:30
   **   ~~~   ** The solution for one or more of the Air Loop HVAC systems did not appear to converge
   **   ~~~   ** Air System Named = CENTRAL SYSTEM did not converge for mass flow rate
   **   ~~~   ** Check values should be zero. Most Recent values listed first.
   **   ~~~   ** Demand-to-Supply interface mass flow rate check value iteration history trace: 8.789793E-002,8.789793E-002,8.789793E-002,8.789793E-002,8.789793E-002,8.789793E-002,8.789793E-002,8.789793E-002,8.789793E-002,8.789793E-002,
   **   ~~~   ** Supply-to-demand interface deck 1 mass flow rate check value iteration history trace: 8.789793E-002,8.789793E-002,8.789793E-002,8.789793E-002,8.789793E-002,8.789793E-002,8.789793E-002,8.789793E-002,8.789793E-002,8.789793E-002,
   **   ~~~   ** Air System Named = CENTRAL SYSTEM did not converge for energy
   **   ~~~   ** Check values should be zero. Most Recent values listed first.
   **   ~~~   ** Demand-to-Supply interface energy check value iteration history trace: 1734.739896,1734.739896,1734.739896,1734.739896,1734.739896,1734.739896,1734.739896,1734.739896,1734.739895,1734.739895,
   **   ~~~   ** Supply-to-demand interface deck 1 energy check value iteration history trace: 2724.798627,2724.798627,2724.798627,2724.798627,2724.798627,2724.798626,2724.798626,2724.798626,2724.798626,2724.798626,
   ** Warning ** SimHVAC: Maximum iterations (20) exceeded for all HVAC loops, at EXTREME_WINTER, 12/29 20:00 - 20:15
   **   ~~~   ** The solution for one or more of the Air Loop HVAC systems did not appear to converge
   **   ~~~   ** Air System Named = CENTRAL SYSTEM did not converge for mass flow rate
   **   ~~~   ** Check values should be zero. Most Recent values listed first.
   **   ~~~   ** Demand-to-Supply interface mass flow rate check value iteration history trace: 8.699652E-002,8.699652E-002,8.699652E-002,8.699652E-002,8.699652E-002,8.699652E-002,8.699652E-002,8.699652E-002,8.699652E-002,8.699652E-002,
   **   ~~~   ** Supply-to-demand interface deck 1 mass flow rate check value iteration history trace: 8.699652E-002,8.699652E-002,8.699652E-002,8.699652E-002,8.699652E-002,8.699652E-002,8.699652E-002,8.699652E-002,8.699652E-002,8.699652E-002,
   **   ~~~   ** Air System Named = CENTRAL SYSTEM did not converge for energy
   **   ~~~   ** Check values should be zero. Most Recent values listed first.
   **   ~~~   ** Demand-to-Supply interface energy check value iteration history trace: 1720.005601,1720.005601,1720.005601,1720.005601,1720.005600,1720.005600,1720.005600,1720.005600,1720.005600,1720.005600,
   **   ~~~   ** Supply-to-demand interface deck 1 energy check value iteration history trace: 2688.305056,2688.305056,2688.305056,2688.305056,2688.305055,2688.305055,2688.305055,2688.305055,2688.305055,2688.305055,
   ** Warning ** SimHVAC: Maximum iterations (20) exceeded for all HVAC loops, at ANNUAL, 04/20 07:00 - 07:15
   **   ~~~   ** The solution for one or more of the Air Loop HVAC systems did not appear to converge
   **   ~~~   ** Air System Named = CENTRAL SYSTEM did not converge for mass flow rate
   **   ~~~   ** Check values should be zero. Most Recent values listed first.
   **   ~~~   ** Demand-to-Supply interface mass flow rate check value iteration history trace: 6.742231E-002,6.742231E-002,6.742231E-002,6.742231E-002,6.742231E-002,6.742231E-002,6.742231E-002,6.742231E-002,6.742231E-002,6.742231E-002,
   **   ~~~   ** Supply-to-demand interface deck 1 mass flow rate check value iteration history trace: 6.742231E-002,6.742231E-002,6.742231E-002,6.742231E-002,6.742231E-002,6.742231E-002,6.742231E-002,6.742231E-002,6.742231E-002,6.742231E-002,
   **   ~~~   ** Air System Named = CENTRAL SYSTEM did not converge for energy
   **   ~~~   ** Check values should be zero. Most Recent values listed first.
   **   ~~~   ** Demand-to-Supply interface energy check value iteration history trace: 1335.284543,1335.284543,1335.284543,1335.284543,1335.284543,1335.284543,1335.284543,1335.284543,1335.284543,1335.284542,
   **   ~~~   ** Supply-to-demand interface deck 1 energy check value iteration history trace: 2475.225347,2475.225347,2475.225347,2475.225347,2475.225347,2475.225347,2475.225347,2475.225346,2475.225346,2475.225346,
   ** Warning ** SimHVAC: Maximum iterations (20) exceeded for all HVAC loops, at ANNUAL, 10/31 07:30 - 07:45
   **   ~~~   ** The solution for one or more of the Air Loop HVAC systems did not appear to converge
   **   ~~~   ** Air System Named = CENTRAL SYSTEM did not converge for mass flow rate
   **   ~~~   ** Check values should be zero. Most Recent values listed first.
   **   ~~~   ** Demand-to-Supply interface mass flow rate check value iteration history trace: 6.544962E-002,6.544962E-002,6.544962E-002,6.544962E-002,6.544962E-002,6.544962E-002,6.544962E-002,6.544962E-002,6.544962E-002,6.544962E-002,
   **   ~~~   ** Supply-to-demand interface deck 1 mass flow rate check value iteration history trace: 6.544962E-002,6.544962E-002,6.544962E-002,6.544962E-002,6.544962E-002,6.544962E-002,6.544962E-002,6.544962E-002,6.544962E-002,6.544962E-002,
   **   ~~~   ** Air System Named = CENTRAL SYSTEM did not converge for energy
   **   ~~~   ** Check values should be zero. Most Recent values listed first.
   **   ~~~   ** Demand-to-Supply interface energy check value iteration history trace: 1296.931272,1296.931272,1296.931272,1296.931272,1296.931272,1296.931272,1296.931272,1296.931272,1296.931272,1296.931272,
   **   ~~~   ** Supply-to-demand interface deck 1 energy check value iteration history trace: 2373.292831,2373.292830,2373.292830,2373.292830,2373.292830,2373.292830,2373.292830,2373.292830,2373.292830,2373.292830,
   ** Warning ** SimHVAC: Maximum iterations (20) exceeded for all HVAC loops, at ANNUAL, 11/14 20:40 - 20:45
   **   ~~~   ** The solution for one or more of the Air Loop HVAC systems did not appear to converge
   **   ~~~   ** Air System Named = CENTRAL SYSTEM did not converge for mass flow rate
   **   ~~~   ** Check values should be zero. Most Recent values listed first.
   **   ~~~   ** Demand-to-Supply interface mass flow rate check value iteration history trace: 0.218746,0.218746,0.218746,0.218746,0.218746,0.218746,0.218746,0.218746,0.218746,0.218746,
   **   ~~~   ** Supply-to-demand interface deck 1 mass flow rate check value iteration history trace: 0.218746,0.218746,0.218746,0.218746,0.218746,0.218746,0.218746,0.218746,0.218746,0.218746,
   **   ~~~   ** Air System Named = CENTRAL SYSTEM did not converge for energy
   **   ~~~   ** Check values should be zero. Most Recent values listed first.
   **   ~~~   ** Demand-to-Supply interface energy check value iteration history trace: 5237.305673,5237.305674,5237.305674,5237.305674,5237.305675,5237.305675,5237.305675,5237.305676,5237.305676,5237.305676,
   **   ~~~   ** Supply-to-demand interface deck 1 energy check value iteration history trace: 2279.013747,2279.013747,2279.013747,2279.013747,2279.013747,2279.013747,2279.013747,2279.013748,2279.013748,2279.013748,
   ** Warning ** SimHVAC: Maximum iterations (20) exceeded for all HVAC loops, at ANNUAL, 11/25 11:00 - 11:15
   **   ~~~   ** The solution for one or more of the Air Loop HVAC systems did not appear to converge
   **   ~~~   ** Air System Named = CENTRAL SYSTEM did not converge for mass flow rate
   **   ~~~   ** Check values should be zero. Most Recent values listed first.
   **   ~~~   ** Demand-to-Supply interface mass flow rate check value iteration history trace: 4.794312E-002,4.794312E-002,4.794312E-002,4.794312E-002,4.794312E-002,4.794312E-002,4.794312E-002,4.794312E-002,4.794312E-002,4.794312E-002,
   **   ~~~   ** Supply-to-demand interface deck 1 mass flow rate check value iteration history trace: 4.794312E-002,4.794312E-002,4.794312E-002,4.794312E-002,4.794312E-002,4.794312E-002,4.794312E-002,4.794312E-002,4.794312E-002,4.794312E-002,
   **   ~~~   ** Air System Named = CENTRAL SYSTEM did not converge for energy
   **   ~~~   ** Check values should be zero. Most Recent values listed first.
   **   ~~~   ** Demand-to-Supply interface energy check value iteration history trace: 937.763432,937.763432,937.763432,937.763432,937.763432,937.763432,937.763432,937.763432,937.763432,937.763432,
   **   ~~~   ** Supply-to-demand interface deck 1 energy check value iteration history trace: 1753.335330,1753.335330,1753.335330,1753.335330,1753.335330,1753.335330,1753.335330,1753.335330,1753.335330,1753.335330,
   ** Warning ** SimHVAC: Maximum iterations (20) exceeded for all HVAC loops, at ANNUAL, 12/12 20:45 - 21:00
   **   ~~~   ** The solution for one or more of the Air Loop HVAC systems did not appear to converge
   **   ~~~   ** Air System Named = CENTRAL SYSTEM did not converge for mass flow rate
   **   ~~~   ** Check values should be zero. Most Recent values listed first.
   **   ~~~   ** Demand-to-Supply interface mass flow rate check value iteration history trace: 6.597054E-002,6.597054E-002,6.597054E-002,6.597054E-002,6.597054E-002,6.597054E-002,6.597054E-002,6.597054E-002,6.597054E-002,6.597054E-002,
   **   ~~~   ** Supply-to-demand interface deck 1 mass flow rate check value iteration history trace: 6.597054E-002,6.597054E-002,6.597054E-002,6.597054E-002,6.597054E-002,6.597054E-002,6.597054E-002,6.597054E-002,6.597054E-002,6.597054E-002,
   **   ~~~   ** Air System Named = CENTRAL SYSTEM did not converge for energy
   **   ~~~   ** Check values should be zero. Most Recent values listed first.
   **   ~~~   ** Demand-to-Supply interface energy check value iteration history trace: 1305.497712,1305.497712,1305.497712,1305.497712,1305.497712,1305.497712,1305.497712,1305.497712,1305.497712,1305.497712,
   **   ~~~   ** Supply-to-demand interface deck 1 energy check value iteration history trace: 2040.031140,2040.031140,2040.031140,2040.031140,2040.031140,2040.031140,2040.031140,2040.031140,2040.031139,2040.031139,
   ** Warning ** SimHVAC: Maximum iterations (20) exceeded for all HVAC loops, at ANNUAL, 12/17 12:15 - 12:20
   **   ~~~   ** The solution for one or more of the Air Loop HVAC systems did not appear to converge
   **   ~~~   ** Air System Named = CENTRAL SYSTEM did not converge for mass flow rate
   **   ~~~   ** Check values should be zero. Most Recent values listed first.
   **   ~~~   ** Demand-to-Supply interface mass flow rate check value iteration history trace: 5.287394E-002,5.287394E-002,5.287394E-002,5.287394E-002,5.287394E-002,5.287394E-002,5.287394E-002,5.287394E-002,5.287394E-002,5.287394E-002,
   **   ~~~   ** Supply-to-demand interface deck 1 mass flow rate check value iteration history trace: 5.287394E-002,5.287394E-002,5.287394E-002,5.287394E-002,5.287394E-002,5.287394E-002,5.287394E-002,5.287394E-002,5.287394E-002,5.287394E-002,
   **   ~~~   ** Air System Named = CENTRAL SYSTEM did not converge for energy
   **   ~~~   ** Check values should be zero. Most Recent values listed first.
   **   ~~~   ** Demand-to-Supply interface energy check value iteration history trace: 1042.394910,1042.394910,1042.394910,1042.394910,1042.394910,1042.394910,1042.394910,1042.394910,1042.394910,1042.394909,
   **   ~~~   ** Supply-to-demand interface deck 1 energy check value iteration history trace: 1883.541156,1883.541156,1883.541156,1883.541155,1883.541155,1883.541155,1883.541155,1883.541155,1883.541155,1883.541155,
   ************* Simulation Error Summary *************
   ** Warning ** The following Report Variables were requested but not generated -- check.rdd file
   **   ~~~   ** Either the IDF did not contain these elements, the variable name is misspelled,
   **   ~~~   ** or the requested variable is an advanced output which requires Output : Diagnostics, DisplayAdvancedReportVariables;
   ************* Key=*, VarName=BASEBOARD TOTAL HEATING ENERGY, Frequency=
   ************* Key=*, VarName=WATER HEATER NATURALGAS ENERGY, Frequency=
   ************* Key=*, VarName=COOLING COIL TOTAL HEATING ENERGY, Frequency=
   ************* There are 34 unused schedules in input.
   ************* There are 388 unused week schedules in input.
   ************* There are 396 unused day schedules in input.
   ************* Use Output:Diagnostics,DisplayUnusedSchedules; to see them.
   *************
   ************* ===== Recurring Error Summary =====
   ************* The following recurring error messages occurred.
   *************
   *************  ** Warning ** "TOTAL HOT WATER LOAD" - Target water temperature should be less than or equal to the hot water temperature error continues...
   *************  **   ~~~   **   This error occurred 118313 total times;
   *************  **   ~~~   **   during Warmup 0 times;
   *************  **   ~~~   **   during Sizing 0 times.
   *************  **   ~~~   **   Max=8.754474  Min=2.489132E-004
   *************
   *************
   ************* ===== Final Error Summary =====
   ************* The following error categories occurred.  Consider correcting or noting.
   ************* Nominally Unused Constructions
   ************* ..The nominally unused constructions warning is provided to alert you to potential conditions that can cause
   ************* ..extra time during simulation. Each construction is calculated by the algorithm indicated in the HeatBalanceAlgorithm
   ************* ..object. You may remove the constructions indicated (when you use the DisplayExtraWarnings option).
   *************
   ************* EnergyPlus Warmup Error Summary. During Warmup: 1 Warning; 0 Severe Errors.
   ************* EnergyPlus Sizing Error Summary. During Sizing: 4 Warning; 0 Severe Errors.
   ************* EnergyPlus Completed Successfully-- 118339 Warning; 0 Severe Errors; Elapsed Time=00hr 06min  7.39sec
