Program Version,EnergyPlus, Version 22.2.0-c249759bad, YMD=2023.09.01 20:01,
   ************* Beginning Zone Sizing Calculations
   ** Warning ** ProcessScheduleInput: Schedule:Constant="ALWAYS ON DISCRETE", Schedule Type Limits Name="ONOFF" not found -- will not be validated
   ** Warning ** Foundation:Kiva="KIVA FOUNDATION", no Interior Horizontal Insulation Material Name defined
   **   ~~~   ** Interior Horizontal Insulation Depth will not be used.
   ** Warning ** CheckUsedConstructions: There are 15 nominally unused constructions in input.
   **   ~~~   ** Each Unused construction is shown.
   ************* Construction=INTERIOR FLOOR
   ************* Construction=INTERIOR WINDOW
   ************* Construction=EXTERIOR DOOR
   ************* Construction=INTERIOR DOOR
   ************* Construction=GABLE CONSTRUCTION
   ************* Construction=CRAWL_FLOOR
   ************* Construction=INSULATED PIPE
   ************* Construction=PLAIN PIPE
   ************* Construction=TDD PIPE
   ************* Construction=TDD DOME
   ************* Construction=TDD DIFFUSER
   ************* Construction=CRAWL WALL
   ************* Construction=CEILING-FLOOR-LAYER
   ************* Construction=SLAB CONSTRUCTION W FULL R10 INSULATION
   ************* Construction=SLAB CONSTRUCTION W FULL R5 INSULATION
   ** Warning ** GetDXCoils: Coil:Heating:DX:SingleSpeed="DX_HEATING_COIL" curve values
   **   ~~~   ** ... Defrost Energy Input Ratio Function of Temperature Curve Name = DEFROSTEIR output is not equal to 1.0 (+ or - 10%) at rated conditions.
   **   ~~~   ** ... Curve output at rated conditions = 0.152
   ************* Beginning System Sizing Calculations
   ************* Beginning Plant Sizing Calculations
   ** Warning ** Coil:WaterHeating:AirToWaterHeatPump:Wrapped "HEAT PUMP WATER HEATER EVAPORATOR": Rated air volume flow rate per watt of rated total water heating capacity is out of range
   **   ~~~   ** Min Rated Vol Flow Per Watt=[4.027E-005], Rated Vol Flow Per Watt=[1.510E-004], Max Rated Vol Flow Per Watt=[8.056E-005]. See Input-Output Reference Manual for valid range.
   ************* SizeFan: : Potential issue with equipment sizing for Fan:OnOff HEAT PUMP WATER HEATER FAN
   **   ~~~   ** User-Specified Maximum Flow Rate [m3/s] = 0.22653
   **   ~~~   ** differs from Design Size Maximum Flow Rate [m3/s] = 7.55250E-002
   **   ~~~   ** This may, or may not, indicate mismatched component sizes.
   **   ~~~   ** Verify that the value entered is intended and is consistent with other components.
   ** Warning ** Water heater = WATER HEATER TANK:  Recovery Efficiency and Energy Factor could not be calculated during the test for standard ratings
   **   ~~~   ** Setpoint was never recovered and/or heater never turned on
   ** Warning ** Check input. Pump nominal power or motor efficiency is set to 0, for pump=MAINS PRESSURE
   ** Warning ** Output:Meter: invalid Key Name="ELECTRIC_RANGE:INTERIOREQUIPMENT:ELECTRICITY" - not found.
   ** Warning ** Output:Meter: invalid Key Name="ELECTRIC_DRYER:INTERIOREQUIPMENT:ELECTRICITY" - not found.
   ** Warning ** Output:Meter: invalid Key Name="HEATRECOVERY:ELECTRICITY" - not found.
   ** Warning ** Output:Meter: invalid Key Name="HEATING:NATURALGAS" - not found.
   ** Warning ** Output:Meter: invalid Key Name="WATERSYSTEMS:NATURALGAS" - not found.
   ** Warning ** Output:Meter: invalid Key Name="PROPANE:FACILITY" - not found.
   ** Warning ** Output:Meter: invalid Key Name="HEATING:PROPANE" - not found.
   ************* Testing Individual Branch Integrity
   ************* All Branches passed integrity testing
   ************* Testing Individual Supply Air Path Integrity
   ************* All Supply Air Paths passed integrity testing
   ************* Testing Individual Return Air Path Integrity
   ************* All Return Air Paths passed integrity testing
   ************* No node connection errors were found.
   ************* Beginning Simulation
   ** Warning ** AirflowNetwork::Solver::validate_distribution: Heat pump water heater is simulated along with an AirflowNetwork but is not included in the AirflowNetwork.
   ** Warning ** CalcEquipmentFlowRates: "TOTAL HOT WATER LOAD" - Target water temperature is greater than the hot water temperature by (4.11 C)
   **   ~~~   **  Environment=EXTREME_WINTER, at Simulation time=01/08 07:00 - 07:15
   **   ~~~   ** ...target water temperature     = 53.33 C
   **   ~~~   ** ...hot water temperature        = 49.22 C
   **   ~~~   ** ...Target water temperature should be less than or equal to the hot water temperature. Verify temperature setpoints and schedules.
   ** Warning ** SimHVAC: Maximum iterations (20) exceeded for all HVAC loops, at EXTREME_WINTER, 01/12 14:15 - 14:30
   **   ~~~   ** The solution for one or more of the Air Loop HVAC systems did not appear to converge
   **   ~~~   ** Air System Named = CENTRAL SYSTEM did not converge for mass flow rate
   **   ~~~   ** Check values should be zero. Most Recent values listed first.
   **   ~~~   ** Demand-to-Supply interface mass flow rate check value iteration history trace: 4.711489E-002,4.711489E-002,4.711489E-002,4.711489E-002,4.711489E-002,4.711489E-002,4.711489E-002,4.711489E-002,4.711489E-002,4.711489E-002,
   **   ~~~   ** Supply-to-demand interface deck 1 mass flow rate check value iteration history trace: 4.711489E-002,4.711489E-002,4.711489E-002,4.711489E-002,4.711489E-002,4.711489E-002,4.711489E-002,4.711489E-002,4.711489E-002,4.711489E-002,
   **   ~~~   ** Air System Named = CENTRAL SYSTEM did not converge for energy
   **   ~~~   ** Check values should be zero. Most Recent values listed first.
   **   ~~~   ** Demand-to-Supply interface energy check value iteration history trace: 934.034760,934.034760,934.034760,934.034759,934.034759,934.034759,934.034759,934.034759,934.034759,934.034759,
   **   ~~~   ** Supply-to-demand interface deck 1 energy check value iteration history trace: 1440.663967,1440.663967,1440.663967,1440.663967,1440.663967,1440.663967,1440.663967,1440.663967,1440.663967,1440.663967,
   ** Warning ** SimHVAC: Maximum iterations (20) exceeded for all HVAC loops, at ANNUAL, 01/07 11:40 - 11:45
   **   ~~~   ** The solution for one or more of the Air Loop HVAC systems did not appear to converge
   **   ~~~   ** Air System Named = CENTRAL SYSTEM did not converge for mass flow rate
   **   ~~~   ** Check values should be zero. Most Recent values listed first.
   **   ~~~   ** Demand-to-Supply interface mass flow rate check value iteration history trace: 7.672429E-002,7.672429E-002,7.672429E-002,7.672429E-002,7.672429E-002,7.672429E-002,7.672429E-002,7.672429E-002,7.672429E-002,7.672429E-002,
   **   ~~~   ** Supply-to-demand interface deck 1 mass flow rate check value iteration history trace: 7.672429E-002,7.672429E-002,7.672429E-002,7.672429E-002,7.672429E-002,7.672429E-002,7.672429E-002,7.672429E-002,7.672429E-002,7.672429E-002,
   **   ~~~   ** Air System Named = CENTRAL SYSTEM did not converge for energy
   **   ~~~   ** Check values should be zero. Most Recent values listed first.
   **   ~~~   ** Demand-to-Supply interface energy check value iteration history trace: 1520.342899,1520.342899,1520.342899,1520.342899,1520.342899,1520.342899,1520.342899,1520.342898,1520.342898,1520.342898,
   **   ~~~   ** Supply-to-demand interface deck 1 energy check value iteration history trace: 2370.505126,2370.505126,2370.505126,2370.505126,2370.505126,2370.505125,2370.505125,2370.505125,2370.505125,2370.505125,
   ** Warning ** SimHVAC: Maximum iterations (20) exceeded for all HVAC loops, at ANNUAL, 01/20 12:15 - 12:30
   **   ~~~   ** The solution for one or more of the Air Loop HVAC systems did not appear to converge
   **   ~~~   ** Air System Named = CENTRAL SYSTEM did not converge for mass flow rate
   **   ~~~   ** Check values should be zero. Most Recent values listed first.
   **   ~~~   ** Demand-to-Supply interface mass flow rate check value iteration history trace: 7.953663E-002,7.953663E-002,7.953663E-002,7.953663E-002,7.953663E-002,7.953663E-002,7.953663E-002,7.953663E-002,7.953663E-002,7.953663E-002,
   **   ~~~   ** Supply-to-demand interface deck 1 mass flow rate check value iteration history trace: 7.953663E-002,7.953663E-002,7.953663E-002,7.953663E-002,7.953663E-002,7.953663E-002,7.953663E-002,7.953663E-002,7.953663E-002,7.953663E-002,
   **   ~~~   ** Air System Named = CENTRAL SYSTEM did not converge for energy
   **   ~~~   ** Check values should be zero. Most Recent values listed first.
   **   ~~~   ** Demand-to-Supply interface energy check value iteration history trace: 1572.089615,1572.089615,1572.089615,1572.089615,1572.089615,1572.089615,1572.089615,1572.089615,1572.089615,1572.089615,
   **   ~~~   ** Supply-to-demand interface deck 1 energy check value iteration history trace: 2507.318301,2507.318301,2507.318301,2507.318301,2507.318301,2507.318301,2507.318301,2507.318301,2507.318300,2507.318300,
   ** Warning ** SimHVAC: Maximum iterations (20) exceeded for all HVAC loops, at ANNUAL, 01/21 20:45 - 20:49
   **   ~~~   ** The solution for one or more of the Air Loop HVAC systems did not appear to converge
   **   ~~~   ** Air System Named = CENTRAL SYSTEM did not converge for mass flow rate
   **   ~~~   ** Check values should be zero. Most Recent values listed first.
   **   ~~~   ** Demand-to-Supply interface mass flow rate check value iteration history trace: 0.115911,0.115911,0.115911,0.115911,0.115911,0.115911,0.115911,0.115911,0.115911,0.115911,
   **   ~~~   ** Supply-to-demand interface deck 1 mass flow rate check value iteration history trace: 0.115911,0.115911,0.115911,0.115911,0.115911,0.115911,0.115911,0.115911,0.115911,0.115911,
   **   ~~~   ** Air System Named = CENTRAL SYSTEM did not converge for energy
   **   ~~~   ** Check values should be zero. Most Recent values listed first.
   **   ~~~   ** Demand-to-Supply interface energy check value iteration history trace: 2286.590661,2286.590661,2286.590661,2286.590661,2286.590661,2286.590660,2286.590660,2286.590660,2286.590660,2286.590660,
   **   ~~~   ** Supply-to-demand interface deck 1 energy check value iteration history trace: 3441.413801,3441.413801,3441.413801,3441.413800,3441.413800,3441.413800,3441.413800,3441.413799,3441.413799,3441.413799,
   ** Warning ** SimHVAC: Maximum iterations (20) exceeded for all HVAC loops, at ANNUAL, 01/24 22:30 - 22:45
   **   ~~~   ** The solution for one or more of the Air Loop HVAC systems did not appear to converge
   **   ~~~   ** Air System Named = CENTRAL SYSTEM did not converge for mass flow rate
   **   ~~~   ** Check values should be zero. Most Recent values listed first.
   **   ~~~   ** Demand-to-Supply interface mass flow rate check value iteration history trace: 6.099810E-002,6.099810E-002,6.099810E-002,6.099810E-002,6.099810E-002,6.099810E-002,6.099810E-002,6.099810E-002,6.099810E-002,6.099810E-002,
   **   ~~~   ** Supply-to-demand interface deck 1 mass flow rate check value iteration history trace: 6.099810E-002,6.099810E-002,6.099810E-002,6.099810E-002,6.099810E-002,6.099810E-002,6.099810E-002,6.099810E-002,6.099810E-002,6.099810E-002,
   **   ~~~   ** Air System Named = CENTRAL SYSTEM did not converge for energy
   **   ~~~   ** Check values should be zero. Most Recent values listed first.
   **   ~~~   ** Demand-to-Supply interface energy check value iteration history trace: 1140.701937,1140.701937,1140.701937,1140.701937,1140.701937,1140.701937,1140.701937,1140.701937,1140.701937,1140.701937,
   **   ~~~   ** Supply-to-demand interface deck 1 energy check value iteration history trace: 1982.552243,1982.552243,1982.552243,1982.552243,1982.552243,1982.552243,1982.552243,1982.552243,1982.552243,1982.552243,
   ** Warning ** SimHVAC: Maximum iterations (20) exceeded for all HVAC loops, at ANNUAL, 01/27 11:23 - 11:30
   **   ~~~   ** The solution for one or more of the Air Loop HVAC systems did not appear to converge
   **   ~~~   ** Air System Named = CENTRAL SYSTEM did not converge for mass flow rate
   **   ~~~   ** Check values should be zero. Most Recent values listed first.
   **   ~~~   ** Demand-to-Supply interface mass flow rate check value iteration history trace: 9.011030E-002,9.011030E-002,9.011030E-002,9.011030E-002,9.011030E-002,9.011030E-002,9.011030E-002,9.011030E-002,9.011030E-002,9.011030E-002,
   **   ~~~   ** Supply-to-demand interface deck 1 mass flow rate check value iteration history trace: 9.011030E-002,9.011030E-002,9.011030E-002,9.011030E-002,9.011030E-002,9.011030E-002,9.011030E-002,9.011030E-002,9.011030E-002,9.011030E-002,
   **   ~~~   ** Air System Named = CENTRAL SYSTEM did not converge for energy
   **   ~~~   ** Check values should be zero. Most Recent values listed first.
   **   ~~~   ** Demand-to-Supply interface energy check value iteration history trace: 1777.505396,1777.505396,1777.505396,1777.505396,1777.505396,1777.505396,1777.505395,1777.505395,1777.505395,1777.505395,
   **   ~~~   ** Supply-to-demand interface deck 1 energy check value iteration history trace: 2815.747296,2815.747296,2815.747296,2815.747296,2815.747295,2815.747295,2815.747295,2815.747295,2815.747295,2815.747295,
   ** Warning ** SimHVAC: Maximum iterations (20) exceeded for all HVAC loops, at ANNUAL, 02/02 10:30 - 10:32
   **   ~~~   ** The solution for one or more of the Air Loop HVAC systems did not appear to converge
   **   ~~~   ** Air System Named = CENTRAL SYSTEM did not converge for mass flow rate
   **   ~~~   ** Check values should be zero. Most Recent values listed first.
   **   ~~~   ** Demand-to-Supply interface mass flow rate check value iteration history trace: 8.058616E-002,8.058616E-002,8.058616E-002,8.058616E-002,8.058616E-002,8.058616E-002,8.058616E-002,8.058616E-002,8.058616E-002,8.058616E-002,
   **   ~~~   ** Supply-to-demand interface deck 1 mass flow rate check value iteration history trace: 8.058616E-002,8.058616E-002,8.058616E-002,8.058616E-002,8.058616E-002,8.058616E-002,8.058616E-002,8.058616E-002,8.058616E-002,8.058616E-002,
   **   ~~~   ** Air System Named = CENTRAL SYSTEM did not converge for energy
   **   ~~~   ** Check values should be zero. Most Recent values listed first.
   **   ~~~   ** Demand-to-Supply interface energy check value iteration history trace: 1592.341833,1592.341833,1592.341833,1592.341833,1592.341833,1592.341833,1592.341833,1592.341833,1592.341833,1592.341833,
   **   ~~~   ** Supply-to-demand interface deck 1 energy check value iteration history trace: 2716.152746,2716.152746,2716.152746,2716.152746,2716.152745,2716.152745,2716.152745,2716.152745,2716.152745,2716.152745,
   ** Warning ** SimHVAC: Maximum iterations (20) exceeded for all HVAC loops, at ANNUAL, 02/02 10:49 - 10:51
   **   ~~~   ** The solution for one or more of the Air Loop HVAC systems did not appear to converge
   **   ~~~   ** Air System Named = CENTRAL SYSTEM did not converge for mass flow rate
   **   ~~~   ** Check values should be zero. Most Recent values listed first.
   **   ~~~   ** Demand-to-Supply interface mass flow rate check value iteration history trace: 7.798054E-002,7.798054E-002,7.798054E-002,7.798054E-002,7.798054E-002,7.798054E-002,7.798054E-002,7.798054E-002,7.798054E-002,7.798054E-002,
   **   ~~~   ** Supply-to-demand interface deck 1 mass flow rate check value iteration history trace: 7.798054E-002,7.798054E-002,7.798054E-002,7.798054E-002,7.798054E-002,7.798054E-002,7.798054E-002,7.798054E-002,7.798054E-002,7.798054E-002,
   **   ~~~   ** Air System Named = CENTRAL SYSTEM did not converge for energy
   **   ~~~   ** Check values should be zero. Most Recent values listed first.
   **   ~~~   ** Demand-to-Supply interface energy check value iteration history trace: 1542.647458,1542.647457,1542.647457,1542.647457,1542.647457,1542.647457,1542.647457,1542.647457,1542.647457,1542.647457,
   **   ~~~   ** Supply-to-demand interface deck 1 energy check value iteration history trace: 2644.672186,2644.672186,2644.672186,2644.672186,2644.672186,2644.672186,2644.672186,2644.672186,2644.672186,2644.672186,
   ** Warning ** SimHVAC: Maximum iterations (20) exceeded for all HVAC loops, at ANNUAL, 02/21 11:00 - 11:15
   **   ~~~   ** The solution for one or more of the Air Loop HVAC systems did not appear to converge
   **   ~~~   ** Air System Named = CENTRAL SYSTEM did not converge for mass flow rate
   **   ~~~   ** Check values should be zero. Most Recent values listed first.
   **   ~~~   ** Demand-to-Supply interface mass flow rate check value iteration history trace: 0.105122,0.105122,0.105122,0.105122,0.105122,0.105122,0.105122,0.105122,0.105122,0.105122,
   **   ~~~   ** Supply-to-demand interface deck 1 mass flow rate check value iteration history trace: 0.105122,0.105122,0.105122,0.105122,0.105122,0.105122,0.105122,0.105122,0.105122,0.105122,
   **   ~~~   ** Air System Named = CENTRAL SYSTEM did not converge for energy
   **   ~~~   ** Check values should be zero. Most Recent values listed first.
   **   ~~~   ** Demand-to-Supply interface energy check value iteration history trace: 2083.001040,2083.001040,2083.001040,2083.001040,2083.001040,2083.001040,2083.001040,2083.001039,2083.001039,2083.001039,
   **   ~~~   ** Supply-to-demand interface deck 1 energy check value iteration history trace: 3212.959232,3212.959232,3212.959232,3212.959232,3212.959231,3212.959231,3212.959231,3212.959231,3212.959230,3212.959230,
   ** Warning ** SimHVAC: Maximum iterations (20) exceeded for all HVAC loops, at ANNUAL, 02/27 13:00 - 13:15
   **   ~~~   ** The solution for one or more of the Air Loop HVAC systems did not appear to converge
   **   ~~~   ** Air System Named = CENTRAL SYSTEM did not converge for mass flow rate
   **   ~~~   ** Check values should be zero. Most Recent values listed first.
   **   ~~~   ** Demand-to-Supply interface mass flow rate check value iteration history trace: 3.034410E-002,3.034410E-002,3.034410E-002,3.034410E-002,3.034410E-002,3.034410E-002,3.034410E-002,3.034410E-002,3.034410E-002,3.034410E-002,
   **   ~~~   ** Supply-to-demand interface deck 1 mass flow rate check value iteration history trace: 3.034410E-002,3.034410E-002,3.034410E-002,3.034410E-002,3.034410E-002,3.034410E-002,3.034410E-002,3.034410E-002,3.034410E-002,3.034410E-002,
   **   ~~~   ** Air System Named = CENTRAL SYSTEM did not converge for energy
   **   ~~~   ** Check values should be zero. Most Recent values listed first.
   **   ~~~   ** Demand-to-Supply interface energy check value iteration history trace: 594.904200,594.904200,594.904200,594.904200,594.904200,594.904200,594.904200,594.904200,594.904200,594.904199,
   **   ~~~   ** Supply-to-demand interface deck 1 energy check value iteration history trace: 1077.147052,1077.147052,1077.147052,1077.147052,1077.147051,1077.147051,1077.147051,1077.147051,1077.147051,1077.147050,
   **   ~~~   ** Node named ZONE INLET NODE shows oscillating temperatures across iterations with a repeated value of 35.326622
   **   ~~~   ** Node named ZONE INLET NODE temperature [C] iteration history trace (most recent first): 35.326622,35.326622,35.326621,35.326621,35.326621,35.326621,35.326620,35.326620,35.326620,35.326619,
   ** Warning ** SimHVAC: Maximum iterations (20) exceeded for all HVAC loops, at ANNUAL, 03/04 11:30 - 11:34
   **   ~~~   ** The solution for one or more of the Air Loop HVAC systems did not appear to converge
   **   ~~~   ** Air System Named = CENTRAL SYSTEM did not converge for mass flow rate
   **   ~~~   ** Check values should be zero. Most Recent values listed first.
   **   ~~~   ** Demand-to-Supply interface mass flow rate check value iteration history trace: 7.655993E-002,7.655993E-002,7.655993E-002,7.655993E-002,7.655993E-002,7.655993E-002,7.655993E-002,7.655993E-002,7.655993E-002,7.655993E-002,
   **   ~~~   ** Supply-to-demand interface deck 1 mass flow rate check value iteration history trace: 7.655993E-002,7.655993E-002,7.655993E-002,7.655993E-002,7.655993E-002,7.655993E-002,7.655993E-002,7.655993E-002,7.655993E-002,7.655993E-002,
   **   ~~~   ** Air System Named = CENTRAL SYSTEM did not converge for energy
   **   ~~~   ** Check values should be zero. Most Recent values listed first.
   **   ~~~   ** Demand-to-Supply interface energy check value iteration history trace: 1517.139008,1517.139008,1517.139008,1517.139008,1517.139008,1517.139008,1517.139008,1517.139008,1517.139008,1517.139007,
   **   ~~~   ** Supply-to-demand interface deck 1 energy check value iteration history trace: 2352.100996,2352.100996,2352.100996,2352.100996,2352.100996,2352.100996,2352.100996,2352.100995,2352.100995,2352.100995,
   ** Warning ** SimHVAC: Maximum iterations (20) exceeded for all HVAC loops, at ANNUAL, 03/05 20:53 - 21:00
   **   ~~~   ** The solution for one or more of the Air Loop HVAC systems did not appear to converge
   **   ~~~   ** Air System Named = CENTRAL SYSTEM did not converge for mass flow rate
   **   ~~~   ** Check values should be zero. Most Recent values listed first.
   **   ~~~   ** Demand-to-Supply interface mass flow rate check value iteration history trace: 7.305798E-002,7.305798E-002,7.305798E-002,7.305798E-002,7.305798E-002,7.305798E-002,7.305798E-002,7.305798E-002,7.305798E-002,7.305798E-002,
   **   ~~~   ** Supply-to-demand interface deck 1 mass flow rate check value iteration history trace: 7.305798E-002,7.305798E-002,7.305798E-002,7.305798E-002,7.305798E-002,7.305798E-002,7.305798E-002,7.305798E-002,7.305798E-002,7.305798E-002,
   **   ~~~   ** Air System Named = CENTRAL SYSTEM did not converge for energy
   **   ~~~   ** Check values should be zero. Most Recent values listed first.
   **   ~~~   ** Demand-to-Supply interface energy check value iteration history trace: 1446.967612,1446.967612,1446.967612,1446.967611,1446.967611,1446.967611,1446.967611,1446.967611,1446.967611,1446.967611,
   **   ~~~   ** Supply-to-demand interface deck 1 energy check value iteration history trace: 2490.928718,2490.928718,2490.928717,2490.928717,2490.928717,2490.928717,2490.928717,2490.928717,2490.928717,2490.928717,
   ** Warning ** SimHVAC: Maximum iterations (20) exceeded for all HVAC loops, at ANNUAL, 03/08 23:35 - 23:40
   **   ~~~   ** The solution for one or more of the Air Loop HVAC systems did not appear to converge
   **   ~~~   ** Air System Named = CENTRAL SYSTEM did not converge for mass flow rate
   **   ~~~   ** Check values should be zero. Most Recent values listed first.
   **   ~~~   ** Demand-to-Supply interface mass flow rate check value iteration history trace: 9.743551E-002,9.743551E-002,9.743551E-002,9.743551E-002,9.743551E-002,9.743551E-002,9.743551E-002,9.743551E-002,9.743551E-002,9.743551E-002,
   **   ~~~   ** Supply-to-demand interface deck 1 mass flow rate check value iteration history trace: 9.743551E-002,9.743551E-002,9.743551E-002,9.743551E-002,9.743551E-002,9.743551E-002,9.743551E-002,9.743551E-002,9.743551E-002,9.743551E-002,
   **   ~~~   ** Air System Named = CENTRAL SYSTEM did not converge for energy
   **   ~~~   ** Check values should be zero. Most Recent values listed first.
   **   ~~~   ** Demand-to-Supply interface energy check value iteration history trace: 1821.802166,1821.802166,1821.802166,1821.802166,1821.802166,1821.802166,1821.802166,1821.802165,1821.802165,1821.802165,
   **   ~~~   ** Supply-to-demand interface deck 1 energy check value iteration history trace: 2776.360281,2776.360281,2776.360281,2776.360281,2776.360280,2776.360280,2776.360280,2776.360280,2776.360280,2776.360279,
   ** Warning ** SimHVAC: Maximum iterations (20) exceeded for all HVAC loops, at ANNUAL, 03/19 08:00 - 08:08
   **   ~~~   ** The solution for one or more of the Air Loop HVAC systems did not appear to converge
   **   ~~~   ** Air System Named = CENTRAL SYSTEM did not converge for mass flow rate
   **   ~~~   ** Check values should be zero. Most Recent values listed first.
   **   ~~~   ** Demand-to-Supply interface mass flow rate check value iteration history trace: 6.006449E-002,6.006449E-002,6.006449E-002,6.006449E-002,6.006449E-002,6.006449E-002,6.006449E-002,6.006449E-002,6.006449E-002,6.006449E-002,
   **   ~~~   ** Supply-to-demand interface deck 1 mass flow rate check value iteration history trace: 6.006449E-002,6.006449E-002,6.006449E-002,6.006449E-002,6.006449E-002,6.006449E-002,6.006449E-002,6.006449E-002,6.006449E-002,6.006449E-002,
   **   ~~~   ** Air System Named = CENTRAL SYSTEM did not converge for energy
   **   ~~~   ** Check values should be zero. Most Recent values listed first.
   **   ~~~   ** Demand-to-Supply interface energy check value iteration history trace: 1206.800657,1206.800657,1206.800657,1206.800657,1206.800657,1206.800657,1206.800657,1206.800657,1206.800657,1206.800657,
   **   ~~~   ** Supply-to-demand interface deck 1 energy check value iteration history trace: 2077.025289,2077.025289,2077.025289,2077.025289,2077.025289,2077.025289,2077.025289,2077.025289,2077.025289,2077.025289,
   ************* Simulation Error Summary *************
   ** Warning ** The following Report Variables were requested but not generated -- check.rdd file
   **   ~~~   ** Either the IDF did not contain these elements, the variable name is misspelled,
   **   ~~~   ** or the requested variable is an advanced output which requires Output : Diagnostics, DisplayAdvancedReportVariables;
   ************* Key=*, VarName=BASEBOARD TOTAL HEATING ENERGY, Frequency=
   ************* Key=*, VarName=WATER HEATER NATURALGAS ENERGY, Frequency=
   ************* Key=*, VarName=COOLING COIL TOTAL HEATING ENERGY, Frequency=
   ************* There are 34 unused schedules in input.
   ************* There are 388 unused week schedules in input.
   ************* There are 396 unused day schedules in input.
   ************* Use Output:Diagnostics,DisplayUnusedSchedules; to see them.
   *************
   ************* ===== Recurring Error Summary =====
   ************* The following recurring error messages occurred.
   *************
   *************  ** Warning ** "TOTAL HOT WATER LOAD" - Target water temperature should be less than or equal to the hot water temperature error continues...
   *************  **   ~~~   **   This error occurred 138019 total times;
   *************  **   ~~~   **   during Warmup 0 times;
   *************  **   ~~~   **   during Sizing 0 times.
   *************  **   ~~~   **   Max=12.222492  Min=1.818145E-003
   *************
   *************  ** Warning ** SimHVAC: Exceeding Maximum iterations for all HVAC loops, during ANNUAL continues
   *************  **   ~~~   **   This error occurred 18 total times;
   *************  **   ~~~   **   during Warmup 0 times;
   *************  **   ~~~   **   during Sizing 0 times.
   *************
   *************
   ************* ===== Final Error Summary =====
   ************* The following error categories occurred.  Consider correcting or noting.
   ************* Nominally Unused Constructions
   ************* ..The nominally unused constructions warning is provided to alert you to potential conditions that can cause
   ************* ..extra time during simulation. Each construction is calculated by the algorithm indicated in the HeatBalanceAlgorithm
   ************* ..object. You may remove the constructions indicated (when you use the DisplayExtraWarnings option).
   *************
   ************* EnergyPlus Warmup Error Summary. During Warmup: 1 Warning; 0 Severe Errors.
   ************* EnergyPlus Sizing Error Summary. During Sizing: 4 Warning; 0 Severe Errors.
   ************* EnergyPlus Completed Successfully-- 138068 Warning; 0 Severe Errors; Elapsed Time=00hr 01min 27.30sec
