Program Version,EnergyPlus, Version 22.2.0-c249759bad, YMD=2023.09.01 19:16,
   ************* Beginning Zone Sizing Calculations
   ** Warning ** ProcessScheduleInput: Schedule:Constant="ALWAYS ON DISCRETE", Schedule Type Limits Name="ONOFF" not found -- will not be validated
   ** Warning ** Foundation:Kiva="KIVA FOUNDATION", no Interior Horizontal Insulation Material Name defined
   **   ~~~   ** Interior Horizontal Insulation Depth will not be used.
   ** Warning ** CheckUsedConstructions: There are 15 nominally unused constructions in input.
   **   ~~~   ** Each Unused construction is shown.
   ************* Construction=INTERIOR FLOOR
   ************* Construction=INTERIOR WINDOW
   ************* Construction=EXTERIOR DOOR
   ************* Construction=INTERIOR DOOR
   ************* Construction=GABLE CONSTRUCTION
   ************* Construction=CRAWL_FLOOR
   ************* Construction=INSULATED PIPE
   ************* Construction=PLAIN PIPE
   ************* Construction=TDD PIPE
   ************* Construction=TDD DOME
   ************* Construction=TDD DIFFUSER
   ************* Construction=CRAWL WALL
   ************* Construction=CEILING-FLOOR-LAYER
   ************* Construction=SLAB CONSTRUCTION W FULL R10 INSULATION
   ************* Construction=SLAB CONSTRUCTION W FULL R5 INSULATION
   ** Warning ** GetDXCoils: Coil:Heating:DX:SingleSpeed="DX_HEATING_COIL" curve values
   **   ~~~   ** ... Defrost Energy Input Ratio Function of Temperature Curve Name = DEFROSTEIR output is not equal to 1.0 (+ or - 10%) at rated conditions.
   **   ~~~   ** ... Curve output at rated conditions = 0.152
   ************* Beginning System Sizing Calculations
   ************* Beginning Plant Sizing Calculations
   ** Warning ** SizeDXCoil Coil:Cooling:DX:SingleSpeed DX_COOLING_COIL
   **   ~~~   ** ...Gross Rated Total Cooling Capacity [W] will be limited by the maximum rated volume flow per rated total capacity ratio.
   **   ~~~   ** ...DX coil volume flow rate ( m3/s ) = 0.575233
   **   ~~~   ** ...Requested capacity ( W ) = 9047.749
   **   ~~~   ** ...Requested flow/capacity ratio ( m3/s/W ) = 6.357E-005
   **   ~~~   ** ...Maximum flow/capacity ratio ( m3/s/W ) = 6.041E-005
   **   ~~~   ** ...Adjusted capacity ( W ) = 9522.162
   ** Warning ** Coil:WaterHeating:AirToWaterHeatPump:Wrapped "HEAT PUMP WATER HEATER EVAPORATOR": Rated air volume flow rate per watt of rated total water heating capacity is out of range
   **   ~~~   ** Min Rated Vol Flow Per Watt=[4.027E-005], Rated Vol Flow Per Watt=[1.510E-004], Max Rated Vol Flow Per Watt=[8.056E-005]. See Input-Output Reference Manual for valid range.
   ************* SizeFan: : Potential issue with equipment sizing for Fan:OnOff HEAT PUMP WATER HEATER FAN
   **   ~~~   ** User-Specified Maximum Flow Rate [m3/s] = 0.22653
   **   ~~~   ** differs from Design Size Maximum Flow Rate [m3/s] = 7.55250E-002
   **   ~~~   ** This may, or may not, indicate mismatched component sizes.
   **   ~~~   ** Verify that the value entered is intended and is consistent with other components.
   ** Warning ** Water heater = WATER HEATER TANK:  Recovery Efficiency and Energy Factor could not be calculated during the test for standard ratings
   **   ~~~   ** Setpoint was never recovered and/or heater never turned on
   ** Warning ** Check input. Pump nominal power or motor efficiency is set to 0, for pump=MAINS PRESSURE
   ** Warning ** AirflowNetwork::Solver::validate_distribution: Heat pump water heater is simulated along with an AirflowNetwork but is not included in the AirflowNetwork.
   ** Warning ** Output:Meter: invalid Key Name="ELECTRIC_RANGE:INTERIOREQUIPMENT:ELECTRICITY" - not found.
   ** Warning ** Output:Meter: invalid Key Name="ELECTRIC_DRYER:INTERIOREQUIPMENT:ELECTRICITY" - not found.
   ** Warning ** Output:Meter: invalid Key Name="HEATRECOVERY:ELECTRICITY" - not found.
   ** Warning ** Output:Meter: invalid Key Name="HEATING:NATURALGAS" - not found.
   ** Warning ** Output:Meter: invalid Key Name="WATERSYSTEMS:NATURALGAS" - not found.
   ** Warning ** Output:Meter: invalid Key Name="PROPANE:FACILITY" - not found.
   ** Warning ** Output:Meter: invalid Key Name="HEATING:PROPANE" - not found.
   ************* Testing Individual Branch Integrity
   ************* All Branches passed integrity testing
   ************* Testing Individual Supply Air Path Integrity
   ************* All Supply Air Paths passed integrity testing
   ************* Testing Individual Return Air Path Integrity
   ************* All Return Air Paths passed integrity testing
   ************* No node connection errors were found.
   ************* Beginning Simulation
   ** Warning ** CalcEquipmentFlowRates: "TOTAL HOT WATER LOAD" - Target water temperature is greater than the hot water temperature by (1.94 C)
   **   ~~~   **  Environment=EXTREME_WINTER, at Simulation time=12/22 06:45 - 07:00
   **   ~~~   ** ...target water temperature     = 53.33 C
   **   ~~~   ** ...hot water temperature        = 51.40 C
   **   ~~~   ** ...Target water temperature should be less than or equal to the hot water temperature. Verify temperature setpoints and schedules.
   ** Warning ** SimHVAC: Maximum iterations (20) exceeded for all HVAC loops, at EXTREME_WINTER, 12/22 08:45 - 08:52
   **   ~~~   ** The solution for one or more of the Air Loop HVAC systems did not appear to converge
   **   ~~~   ** Air System Named = CENTRAL SYSTEM did not converge for mass flow rate
   **   ~~~   ** Check values should be zero. Most Recent values listed first.
   **   ~~~   ** Demand-to-Supply interface mass flow rate check value iteration history trace: 5.816826E-002,5.816826E-002,5.816826E-002,5.816826E-002,5.816826E-002,5.816826E-002,5.816826E-002,5.816826E-002,5.816826E-002,5.816826E-002,
   **   ~~~   ** Supply-to-demand interface deck 1 mass flow rate check value iteration history trace: 5.816826E-002,5.816826E-002,5.816826E-002,5.816826E-002,5.816826E-002,5.816826E-002,5.816826E-002,5.816826E-002,5.816826E-002,5.816826E-002,
   **   ~~~   ** Air System Named = CENTRAL SYSTEM did not converge for energy
   **   ~~~   ** Check values should be zero. Most Recent values listed first.
   **   ~~~   ** Demand-to-Supply interface energy check value iteration history trace: 1152.663166,1152.663166,1152.663166,1152.663166,1152.663166,1152.663166,1152.663166,1152.663166,1152.663166,1152.663166,
   **   ~~~   ** Supply-to-demand interface deck 1 energy check value iteration history trace: 2081.621740,2081.621740,2081.621740,2081.621740,2081.621740,2081.621740,2081.621740,2081.621740,2081.621740,2081.621740,
   ** Warning ** SimHVAC: Maximum iterations (20) exceeded for all HVAC loops, at EXTREME_WINTER, 01/02 22:15 - 22:30
   **   ~~~   ** The solution for one or more of the Air Loop HVAC systems did not appear to converge
   **   ~~~   ** Air System Named = CENTRAL SYSTEM did not converge for mass flow rate
   **   ~~~   ** Check values should be zero. Most Recent values listed first.
   **   ~~~   ** Demand-to-Supply interface mass flow rate check value iteration history trace: 3.039979E-002,3.039979E-002,3.039979E-002,3.039979E-002,3.039979E-002,3.039979E-002,3.039979E-002,3.039979E-002,3.039979E-002,3.039979E-002,
   **   ~~~   ** Supply-to-demand interface deck 1 mass flow rate check value iteration history trace: 3.039979E-002,3.039979E-002,3.039979E-002,3.039979E-002,3.039979E-002,3.039979E-002,3.039979E-002,3.039979E-002,3.039979E-002,3.039979E-002,
   **   ~~~   ** Air System Named = CENTRAL SYSTEM did not converge for energy
   **   ~~~   ** Check values should be zero. Most Recent values listed first.
   **   ~~~   ** Demand-to-Supply interface energy check value iteration history trace: 566.077107,566.077107,566.077107,566.077107,566.077107,566.077107,566.077107,566.077107,566.077107,566.077107,
   **   ~~~   ** Supply-to-demand interface deck 1 energy check value iteration history trace: 899.246508,899.246508,899.246508,899.246508,899.246508,899.246508,899.246508,899.246508,899.246508,899.246508,
   ** Warning ** SimHVAC: Maximum iterations (20) exceeded for all HVAC loops, at EXTREME_WINTER, 01/04 09:15 - 09:17
   **   ~~~   ** The solution for one or more of the Air Loop HVAC systems did not appear to converge
   **   ~~~   ** Air System Named = CENTRAL SYSTEM did not converge for mass flow rate
   **   ~~~   ** Check values should be zero. Most Recent values listed first.
   **   ~~~   ** Demand-to-Supply interface mass flow rate check value iteration history trace: 6.968460E-002,6.968460E-002,6.968460E-002,6.968460E-002,6.968460E-002,6.968460E-002,6.968460E-002,6.968460E-002,6.968460E-002,6.968460E-002,
   **   ~~~   ** Supply-to-demand interface deck 1 mass flow rate check value iteration history trace: 6.968460E-002,6.968460E-002,6.968460E-002,6.968460E-002,6.968460E-002,6.968460E-002,6.968460E-002,6.968460E-002,6.968460E-002,6.968460E-002,
   **   ~~~   ** Air System Named = CENTRAL SYSTEM did not converge for energy
   **   ~~~   ** Check values should be zero. Most Recent values listed first.
   **   ~~~   ** Demand-to-Supply interface energy check value iteration history trace: 1377.379194,1377.379194,1377.379194,1377.379194,1377.379194,1377.379194,1377.379194,1377.379193,1377.379193,1377.379193,
   **   ~~~   ** Supply-to-demand interface deck 1 energy check value iteration history trace: 2357.215764,2357.215764,2357.215764,2357.215764,2357.215764,2357.215764,2357.215764,2357.215763,2357.215763,2357.215763,
   ** Warning ** SimHVAC: Maximum iterations (20) exceeded for all HVAC loops, at ANNUAL, 01/13 08:34 - 08:38
   **   ~~~   ** The solution for one or more of the Air Loop HVAC systems did not appear to converge
   **   ~~~   ** Air System Named = CENTRAL SYSTEM did not converge for mass flow rate
   **   ~~~   ** Check values should be zero. Most Recent values listed first.
   **   ~~~   ** Demand-to-Supply interface mass flow rate check value iteration history trace: 6.719485E-002,6.719485E-002,6.719485E-002,6.719485E-002,6.719485E-002,6.719485E-002,6.719485E-002,6.719485E-002,6.719485E-002,6.719485E-002,
   **   ~~~   ** Supply-to-demand interface deck 1 mass flow rate check value iteration history trace: 6.719485E-002,6.719485E-002,6.719485E-002,6.719485E-002,6.719485E-002,6.719485E-002,6.719485E-002,6.719485E-002,6.719485E-002,6.719485E-002,
   **   ~~~   ** Air System Named = CENTRAL SYSTEM did not converge for energy
   **   ~~~   ** Check values should be zero. Most Recent values listed first.
   **   ~~~   ** Demand-to-Supply interface energy check value iteration history trace: 1331.620495,1331.620495,1331.620495,1331.620495,1331.620494,1331.620494,1331.620494,1331.620494,1331.620494,1331.620494,
   **   ~~~   ** Supply-to-demand interface deck 1 energy check value iteration history trace: 2317.440789,2317.440789,2317.440788,2317.440788,2317.440788,2317.440788,2317.440788,2317.440788,2317.440788,2317.440788,
   ** Warning ** SimHVAC: Maximum iterations (20) exceeded for all HVAC loops, at ANNUAL, 02/21 02:30 - 02:45
   **   ~~~   ** The solution for one or more of the Air Loop HVAC systems did not appear to converge
   **   ~~~   ** Air System Named = CENTRAL SYSTEM did not converge for mass flow rate
   **   ~~~   ** Check values should be zero. Most Recent values listed first.
   **   ~~~   ** Demand-to-Supply interface mass flow rate check value iteration history trace: 5.918571E-002,5.918571E-002,5.918571E-002,5.918571E-002,5.918571E-002,5.918571E-002,5.918571E-002,5.918571E-002,5.918571E-002,5.918571E-002,
   **   ~~~   ** Supply-to-demand interface deck 1 mass flow rate check value iteration history trace: 5.918571E-002,5.918571E-002,5.918571E-002,5.918571E-002,5.918571E-002,5.918571E-002,5.918571E-002,5.918571E-002,5.918571E-002,5.918571E-002,
   **   ~~~   ** Air System Named = CENTRAL SYSTEM did not converge for energy
   **   ~~~   ** Check values should be zero. Most Recent values listed first.
   **   ~~~   ** Demand-to-Supply interface energy check value iteration history trace: 1106.240099,1106.240099,1106.240098,1106.240098,1106.240098,1106.240098,1106.240098,1106.240098,1106.240098,1106.240098,
   **   ~~~   ** Supply-to-demand interface deck 1 energy check value iteration history trace: 1825.797685,1825.797684,1825.797684,1825.797684,1825.797684,1825.797684,1825.797684,1825.797684,1825.797684,1825.797684,
   ** Warning ** SimHVAC: Maximum iterations (20) exceeded for all HVAC loops, at ANNUAL, 02/21 02:45 - 03:00
   **   ~~~   ** The solution for one or more of the Air Loop HVAC systems did not appear to converge
   **   ~~~   ** Air System Named = CENTRAL SYSTEM did not converge for mass flow rate
   **   ~~~   ** Check values should be zero. Most Recent values listed first.
   **   ~~~   ** Demand-to-Supply interface mass flow rate check value iteration history trace: 5.784100E-002,5.784100E-002,5.784100E-002,5.784100E-002,5.784100E-002,5.784100E-002,5.784100E-002,5.784100E-002,5.784100E-002,5.784100E-002,
   **   ~~~   ** Supply-to-demand interface deck 1 mass flow rate check value iteration history trace: 5.784100E-002,5.784100E-002,5.784100E-002,5.784100E-002,5.784100E-002,5.784100E-002,5.784100E-002,5.784100E-002,5.784100E-002,5.784100E-002,
   **   ~~~   ** Air System Named = CENTRAL SYSTEM did not converge for energy
   **   ~~~   ** Check values should be zero. Most Recent values listed first.
   **   ~~~   ** Demand-to-Supply interface energy check value iteration history trace: 1080.776937,1080.776937,1080.776937,1080.776937,1080.776937,1080.776937,1080.776937,1080.776937,1080.776937,1080.776936,
   **   ~~~   ** Supply-to-demand interface deck 1 energy check value iteration history trace: 1776.582726,1776.582726,1776.582726,1776.582725,1776.582725,1776.582725,1776.582725,1776.582725,1776.582725,1776.582725,
   ** Warning ** SimHVAC: Maximum iterations (20) exceeded for all HVAC loops, at ANNUAL, 03/08 10:10 - 10:15
   **   ~~~   ** The solution for one or more of the Air Loop HVAC systems did not appear to converge
   **   ~~~   ** Air System Named = CENTRAL SYSTEM did not converge for mass flow rate
   **   ~~~   ** Check values should be zero. Most Recent values listed first.
   **   ~~~   ** Demand-to-Supply interface mass flow rate check value iteration history trace: 5.428575E-002,5.428575E-002,5.428575E-002,5.428575E-002,5.428575E-002,5.428575E-002,5.428575E-002,5.428575E-002,5.428575E-002,5.428575E-002,
   **   ~~~   ** Supply-to-demand interface deck 1 mass flow rate check value iteration history trace: 5.428575E-002,5.428575E-002,5.428575E-002,5.428575E-002,5.428575E-002,5.428575E-002,5.428575E-002,5.428575E-002,5.428575E-002,5.428575E-002,
   **   ~~~   ** Air System Named = CENTRAL SYSTEM did not converge for energy
   **   ~~~   ** Check values should be zero. Most Recent values listed first.
   **   ~~~   ** Demand-to-Supply interface energy check value iteration history trace: 1067.493920,1067.493920,1067.493920,1067.493920,1067.493919,1067.493919,1067.493919,1067.493919,1067.493919,1067.493919,
   **   ~~~   ** Supply-to-demand interface deck 1 energy check value iteration history trace: 1883.729620,1883.729620,1883.729620,1883.729619,1883.729619,1883.729619,1883.729619,1883.729618,1883.729618,1883.729618,
   ** Warning ** SimHVAC: Maximum iterations (20) exceeded for all HVAC loops, at ANNUAL, 03/19 09:30 - 09:45
   **   ~~~   ** The solution for one or more of the Air Loop HVAC systems did not appear to converge
   **   ~~~   ** Air System Named = CENTRAL SYSTEM did not converge for mass flow rate
   **   ~~~   ** Check values should be zero. Most Recent values listed first.
   **   ~~~   ** Demand-to-Supply interface mass flow rate check value iteration history trace: 5.583282E-002,5.583282E-002,5.583282E-002,5.583282E-002,5.583282E-002,5.583282E-002,5.583282E-002,5.583282E-002,5.583282E-002,5.583282E-002,
   **   ~~~   ** Supply-to-demand interface deck 1 mass flow rate check value iteration history trace: 5.583282E-002,5.583282E-002,5.583282E-002,5.583282E-002,5.583282E-002,5.583282E-002,5.583282E-002,5.583282E-002,5.583282E-002,5.583282E-002,
   **   ~~~   ** Air System Named = CENTRAL SYSTEM did not converge for energy
   **   ~~~   ** Check values should be zero. Most Recent values listed first.
   **   ~~~   ** Demand-to-Supply interface energy check value iteration history trace: 1104.618975,1104.618975,1104.618975,1104.618974,1104.618974,1104.618974,1104.618974,1104.618974,1104.618973,1104.618973,
   **   ~~~   ** Supply-to-demand interface deck 1 energy check value iteration history trace: 1938.663760,1938.663759,1938.663759,1938.663759,1938.663758,1938.663758,1938.663758,1938.663757,1938.663757,1938.663757,
   **   ~~~   ** Node named ZONE INLET NODE shows oscillating temperatures across iterations with a repeated value of 34.555272
   **   ~~~   ** Node named ZONE INLET NODE temperature [C] iteration history trace (most recent first): 34.555272,34.555272,34.555272,34.555272,34.555271,34.555271,34.555271,34.555271,34.555270,34.555270,
   ** Warning ** SimHVAC: Maximum iterations (20) exceeded for all HVAC loops, at ANNUAL, 03/26 08:06 - 08:09
   **   ~~~   ** The solution for one or more of the Air Loop HVAC systems did not appear to converge
   **   ~~~   ** Air System Named = CENTRAL SYSTEM did not converge for mass flow rate
   **   ~~~   ** Check values should be zero. Most Recent values listed first.
   **   ~~~   ** Demand-to-Supply interface mass flow rate check value iteration history trace: 9.075610E-002,9.075610E-002,9.075610E-002,9.075610E-002,9.075610E-002,9.075610E-002,9.075610E-002,9.075610E-002,9.075610E-002,9.075610E-002,
   **   ~~~   ** Supply-to-demand interface deck 1 mass flow rate check value iteration history trace: 9.075610E-002,9.075610E-002,9.075610E-002,9.075610E-002,9.075610E-002,9.075610E-002,9.075610E-002,9.075610E-002,9.075610E-002,9.075610E-002,
   **   ~~~   ** Air System Named = CENTRAL SYSTEM did not converge for energy
   **   ~~~   ** Check values should be zero. Most Recent values listed first.
   **   ~~~   ** Demand-to-Supply interface energy check value iteration history trace: 2149.056168,2149.056168,2149.056168,2149.056169,2149.056169,2149.056169,2149.056169,2149.056169,2149.056169,2149.056169,
   **   ~~~   ** Supply-to-demand interface deck 1 energy check value iteration history trace: 800.451557,800.451557,800.451557,800.451557,800.451557,800.451557,800.451557,800.451557,800.451557,800.451557,
   ** Warning ** SimHVAC: Maximum iterations (20) exceeded for all HVAC loops, at ANNUAL, 03/26 08:58 - 09:00
   **   ~~~   ** The solution for one or more of the Air Loop HVAC systems did not appear to converge
   **   ~~~   ** Air System Named = CENTRAL SYSTEM did not converge for mass flow rate
   **   ~~~   ** Check values should be zero. Most Recent values listed first.
   **   ~~~   ** Demand-to-Supply interface mass flow rate check value iteration history trace: 0.118299,0.118299,0.118299,0.118299,0.118299,0.118299,0.118299,0.118299,0.118299,0.118299,
   **   ~~~   ** Supply-to-demand interface deck 1 mass flow rate check value iteration history trace: 0.118299,0.118299,0.118299,0.118299,0.118299,0.118299,0.118299,0.118299,0.118299,0.118299,
   **   ~~~   ** Air System Named = CENTRAL SYSTEM did not converge for energy
   **   ~~~   ** Check values should be zero. Most Recent values listed first.
   **   ~~~   ** Demand-to-Supply interface energy check value iteration history trace: 2799.716459,2799.716459,2799.716459,2799.716460,2799.716460,2799.716460,2799.716460,2799.716461,2799.716461,2799.716461,
   **   ~~~   ** Supply-to-demand interface deck 1 energy check value iteration history trace: 1054.345670,1054.345670,1054.345670,1054.345670,1054.345670,1054.345670,1054.345671,1054.345671,1054.345671,1054.345671,
   ** Warning ** SimHVAC: Maximum iterations (20) exceeded for all HVAC loops, at ANNUAL, 03/29 10:23 - 10:30
   **   ~~~   ** The solution for one or more of the Air Loop HVAC systems did not appear to converge
   **   ~~~   ** Air System Named = CENTRAL SYSTEM did not converge for mass flow rate
   **   ~~~   ** Check values should be zero. Most Recent values listed first.
   **   ~~~   ** Demand-to-Supply interface mass flow rate check value iteration history trace: 5.010307E-002,5.010307E-002,5.010307E-002,5.010307E-002,5.010307E-002,5.010307E-002,5.010307E-002,5.010307E-002,5.010307E-002,5.010307E-002,
   **   ~~~   ** Supply-to-demand interface deck 1 mass flow rate check value iteration history trace: 5.010307E-002,5.010307E-002,5.010307E-002,5.010307E-002,5.010307E-002,5.010307E-002,5.010307E-002,5.010307E-002,5.010307E-002,5.010307E-002,
   **   ~~~   ** Air System Named = CENTRAL SYSTEM did not converge for energy
   **   ~~~   ** Check values should be zero. Most Recent values listed first.
   **   ~~~   ** Demand-to-Supply interface energy check value iteration history trace: 1180.883337,1180.883337,1180.883337,1180.883338,1180.883338,1180.883338,1180.883338,1180.883339,1180.883339,1180.883339,
   **   ~~~   ** Supply-to-demand interface deck 1 energy check value iteration history trace: 435.409871,435.409871,435.409871,435.409871,435.409871,435.409871,435.409871,435.409871,435.409872,435.409872,
   ** Warning ** SimHVAC: Maximum iterations (20) exceeded for all HVAC loops, at ANNUAL, 03/31 08:13 - 08:15
   **   ~~~   ** The solution for one or more of the Air Loop HVAC systems did not appear to converge
   **   ~~~   ** Air System Named = CENTRAL SYSTEM did not converge for mass flow rate
   **   ~~~   ** Check values should be zero. Most Recent values listed first.
   **   ~~~   ** Demand-to-Supply interface mass flow rate check value iteration history trace: 0.376473,0.376473,0.376473,0.376473,0.376473,0.376473,0.376473,0.376473,0.376473,0.376473,
   **   ~~~   ** Supply-to-demand interface deck 1 mass flow rate check value iteration history trace: 0.376473,0.376473,0.376473,0.376473,0.376473,0.376473,0.376473,0.376473,0.376473,0.376473,
   **   ~~~   ** Air System Named = CENTRAL SYSTEM did not converge for energy
   **   ~~~   ** Check values should be zero. Most Recent values listed first.
   **   ~~~   ** Demand-to-Supply interface energy check value iteration history trace: 9042.157743,9042.157744,9042.157745,9042.157746,9042.157748,9042.157749,9042.157750,9042.157752,9042.157753,9042.157754,
   **   ~~~   ** Supply-to-demand interface deck 1 energy check value iteration history trace: 3496.732246,3496.732247,3496.732247,3496.732248,3496.732248,3496.732249,3496.732249,3496.732250,3496.732250,3496.732251,
   ** Warning ** SimHVAC: Maximum iterations (20) exceeded for all HVAC loops, at ANNUAL, 04/15 09:30 - 09:34
   **   ~~~   ** The solution for one or more of the Air Loop HVAC systems did not appear to converge
   **   ~~~   ** Air System Named = CENTRAL SYSTEM did not converge for mass flow rate
   **   ~~~   ** Check values should be zero. Most Recent values listed first.
   **   ~~~   ** Demand-to-Supply interface mass flow rate check value iteration history trace: 6.847748E-002,6.847748E-002,6.847748E-002,6.847748E-002,6.847748E-002,6.847748E-002,6.847748E-002,6.847748E-002,6.847748E-002,6.847748E-002,
   **   ~~~   ** Supply-to-demand interface deck 1 mass flow rate check value iteration history trace: 6.847748E-002,6.847748E-002,6.847748E-002,6.847748E-002,6.847748E-002,6.847748E-002,6.847748E-002,6.847748E-002,6.847748E-002,6.847748E-002,
   **   ~~~   ** Air System Named = CENTRAL SYSTEM did not converge for energy
   **   ~~~   ** Check values should be zero. Most Recent values listed first.
   **   ~~~   ** Demand-to-Supply interface energy check value iteration history trace: 1356.224932,1356.224932,1356.224932,1356.224932,1356.224932,1356.224932,1356.224932,1356.224932,1356.224931,1356.224931,
   **   ~~~   ** Supply-to-demand interface deck 1 energy check value iteration history trace: 2403.803976,2403.803976,2403.803976,2403.803976,2403.803975,2403.803975,2403.803975,2403.803975,2403.803975,2403.803975,
   ** Warning ** SimHVAC: Maximum iterations (20) exceeded for all HVAC loops, at ANNUAL, 11/15 07:30 - 07:45
   **   ~~~   ** The solution for one or more of the Air Loop HVAC systems did not appear to converge
   **   ~~~   ** Air System Named = CENTRAL SYSTEM did not converge for mass flow rate
   **   ~~~   ** Check values should be zero. Most Recent values listed first.
   **   ~~~   ** Demand-to-Supply interface mass flow rate check value iteration history trace: 2.241531E-002,2.241531E-002,2.241531E-002,2.241531E-002,2.241531E-002,2.241531E-002,2.241531E-002,2.241531E-002,2.241531E-002,2.241531E-002,
   **   ~~~   ** Supply-to-demand interface deck 1 mass flow rate check value iteration history trace: 2.241531E-002,2.241531E-002,2.241531E-002,2.241531E-002,2.241531E-002,2.241531E-002,2.241531E-002,2.241531E-002,2.241531E-002,2.241531E-002,
   **   ~~~   ** Air System Named = CENTRAL SYSTEM did not converge for energy
   **   ~~~   ** Check values should be zero. Most Recent values listed first.
   **   ~~~   ** Demand-to-Supply interface energy check value iteration history trace: 443.623322,443.623322,443.623322,443.623322,443.623322,443.623322,443.623322,443.623322,443.623321,443.623321,
   **   ~~~   ** Supply-to-demand interface deck 1 energy check value iteration history trace: 769.718067,769.718067,769.718067,769.718067,769.718066,769.718066,769.718066,769.718066,769.718066,769.718066,
   ** Warning ** Temperature out of range [-100. to 200.] (PsyPsatFnTemp)
   **   ~~~   **  Routine=PsyTwbFnTdbWPb, Environment=ANNUAL, at Simulation time=11/25 02:00 - 02:15
   **   ~~~   **  Input Temperature=-105.57
   ************* Simulation Error Summary *************
   ** Warning ** The following Report Variables were requested but not generated -- check.rdd file
   **   ~~~   ** Either the IDF did not contain these elements, the variable name is misspelled,
   **   ~~~   ** or the requested variable is an advanced output which requires Output : Diagnostics, DisplayAdvancedReportVariables;
   ************* Key=*, VarName=BASEBOARD TOTAL HEATING ENERGY, Frequency=
   ************* Key=*, VarName=WATER HEATER NATURALGAS ENERGY, Frequency=
   ************* Key=*, VarName=COOLING COIL TOTAL HEATING ENERGY, Frequency=
   ************* There are 34 unused schedules in input.
   ************* There are 388 unused week schedules in input.
   ************* There are 397 unused day schedules in input.
   ************* Use Output:Diagnostics,DisplayUnusedSchedules; to see them.
   *************
   ************* ===== Recurring Error Summary =====
   ************* The following recurring error messages occurred.
   *************
   *************  ** Warning ** "TOTAL HOT WATER LOAD" - Target water temperature should be less than or equal to the hot water temperature error continues...
   *************  **   ~~~   **   This error occurred 129385 total times;
   *************  **   ~~~   **   during Warmup 0 times;
   *************  **   ~~~   **   during Sizing 0 times.
   *************  **   ~~~   **   Max=9.543228  Min=1.784152E-003
   *************
   *************  ** Warning ** Temperature out of range [-100. to 200.] (PsyPsatFnTemp)
   *************  **   ~~~   **   This error occurred 2 total times;
   *************  **   ~~~   **   during Warmup 0 times;
   *************  **   ~~~   **   during Sizing 0 times.
   *************  **   ~~~   **   Max=-101.999252 C  Min=-105.570145 C
   *************
   *************  ** Warning ** SimHVAC: Exceeding Maximum iterations for all HVAC loops, during ANNUAL continues
   *************  **   ~~~   **   This error occurred 5 total times;
   *************  **   ~~~   **   during Warmup 0 times;
   *************  **   ~~~   **   during Sizing 0 times.
   *************
   *************
   ************* ===== Final Error Summary =====
   ************* The following error categories occurred.  Consider correcting or noting.
   ************* Nominally Unused Constructions
   ************* ..The nominally unused constructions warning is provided to alert you to potential conditions that can cause
   ************* ..extra time during simulation. Each construction is calculated by the algorithm indicated in the HeatBalanceAlgorithm
   ************* ..object. You may remove the constructions indicated (when you use the DisplayExtraWarnings option).
   *************
   ************* EnergyPlus Warmup Error Summary. During Warmup: 0 Warning; 0 Severe Errors.
   ************* EnergyPlus Sizing Error Summary. During Sizing: 4 Warning; 0 Severe Errors.
   ************* EnergyPlus Completed Successfully-- 129424 Warning; 0 Severe Errors; Elapsed Time=00hr 01min 55.76sec
