Program Version,EnergyPlus, Version 22.2.0-c249759bad, YMD=2023.08.31 13:04,
   ************* Beginning Zone Sizing Calculations
   ** Warning ** ProcessScheduleInput: Schedule:Constant="ALWAYS ON DISCRETE", Schedule Type Limits Name="ONOFF" not found -- will not be validated
   ** Warning ** Foundation:Kiva="KIVA FOUNDATION", no Interior Horizontal Insulation Material Name defined
   **   ~~~   ** Interior Horizontal Insulation Depth will not be used.
   ** Warning ** CheckUsedConstructions: There are 15 nominally unused constructions in input.
   **   ~~~   ** Each Unused construction is shown.
   ************* Construction=INTERIOR FLOOR
   ************* Construction=INTERIOR WINDOW
   ************* Construction=EXTERIOR DOOR
   ************* Construction=INTERIOR DOOR
   ************* Construction=GABLE CONSTRUCTION
   ************* Construction=CRAWL_FLOOR
   ************* Construction=INSULATED PIPE
   ************* Construction=PLAIN PIPE
   ************* Construction=TDD PIPE
   ************* Construction=TDD DOME
   ************* Construction=TDD DIFFUSER
   ************* Construction=CRAWL WALL
   ************* Construction=CEILING-FLOOR-LAYER
   ************* Construction=SLAB CONSTRUCTION W FULL R10 INSULATION
   ************* Construction=SLAB CONSTRUCTION W FULL R5 INSULATION
   ** Warning ** GetDXCoils: Coil:Heating:DX:SingleSpeed="DX_HEATING_COIL" curve values
   **   ~~~   ** ... Defrost Energy Input Ratio Function of Temperature Curve Name = DEFROSTEIR output is not equal to 1.0 (+ or - 10%) at rated conditions.
   **   ~~~   ** ... Curve output at rated conditions = 0.152
   ************* Beginning System Sizing Calculations
   ************* Beginning Plant Sizing Calculations
   ** Warning ** Coil:WaterHeating:AirToWaterHeatPump:Wrapped "HEAT PUMP WATER HEATER EVAPORATOR": Rated air volume flow rate per watt of rated total water heating capacity is out of range
   **   ~~~   ** Min Rated Vol Flow Per Watt=[4.027E-005], Rated Vol Flow Per Watt=[1.386E-004], Max Rated Vol Flow Per Watt=[8.056E-005]. See Input-Output Reference Manual for valid range.
   ** Warning ** Water heater = WATER HEATER TANK:  Recovery Efficiency and Energy Factor could not be calculated during the test for standard ratings
   **   ~~~   ** Setpoint was never recovered and/or heater never turned on
   ** Warning ** Check input. Pump nominal power or motor efficiency is set to 0, for pump=MAINS PRESSURE
   ** Warning ** AirflowNetwork::Solver::validate_distribution: Heat pump water heater is simulated along with an AirflowNetwork but is not included in the AirflowNetwork.
   ** Warning ** Output:Meter: invalid Key Name="ELECTRIC_RANGE:INTERIOREQUIPMENT:ELECTRICITY" - not found.
   ** Warning ** Output:Meter: invalid Key Name="ELECTRIC_DRYER:INTERIOREQUIPMENT:ELECTRICITY" - not found.
   ** Warning ** Output:Meter: invalid Key Name="HEATRECOVERY:ELECTRICITY" - not found.
   ** Warning ** Output:Meter: invalid Key Name="HEATING:NATURALGAS" - not found.
   ** Warning ** Output:Meter: invalid Key Name="WATERSYSTEMS:NATURALGAS" - not found.
   ** Warning ** Output:Meter: invalid Key Name="PROPANE:FACILITY" - not found.
   ** Warning ** Output:Meter: invalid Key Name="HEATING:PROPANE" - not found.
   ************* Testing Individual Branch Integrity
   ************* All Branches passed integrity testing
   ************* Testing Individual Supply Air Path Integrity
   ************* All Supply Air Paths passed integrity testing
   ************* Testing Individual Return Air Path Integrity
   ************* All Return Air Paths passed integrity testing
   ************* No node connection errors were found.
   ************* Beginning Simulation
   ** Warning ** CalcEquipmentFlowRates: "TOTAL HOT WATER LOAD" - Target water temperature is greater than the hot water temperature by (0.16 C)
   **   ~~~   **  Environment=EXTREME_WINTER, at Simulation time=01/20 06:45 - 07:00
   **   ~~~   ** ...target water temperature     = 53.33 C
   **   ~~~   ** ...hot water temperature        = 53.17 C
   **   ~~~   ** ...Target water temperature should be less than or equal to the hot water temperature. Verify temperature setpoints and schedules.
   ** Warning ** SimHVAC: Maximum iterations (20) exceeded for all HVAC loops, at ANNUAL, 03/19 08:50 - 08:52
   **   ~~~   ** The solution for one or more of the Air Loop HVAC systems did not appear to converge
   **   ~~~   ** Air System Named = CENTRAL SYSTEM did not converge for mass flow rate
   **   ~~~   ** Check values should be zero. Most Recent values listed first.
   **   ~~~   ** Demand-to-Supply interface mass flow rate check value iteration history trace: 9.399844E-002,9.399844E-002,9.399844E-002,9.399844E-002,9.399844E-002,9.399844E-002,9.399844E-002,9.399844E-002,9.399844E-002,9.399844E-002,
   **   ~~~   ** Supply-to-demand interface deck 1 mass flow rate check value iteration history trace: 9.399844E-002,9.399844E-002,9.399844E-002,9.399844E-002,9.399844E-002,9.399844E-002,9.399844E-002,9.399844E-002,9.399844E-002,9.399844E-002,
   **   ~~~   ** Air System Named = CENTRAL SYSTEM did not converge for energy
   **   ~~~   ** Check values should be zero. Most Recent values listed first.
   **   ~~~   ** Demand-to-Supply interface energy check value iteration history trace: 1862.763294,1862.763292,1862.763290,1862.763287,1862.763285,1862.763283,1862.763281,1862.763278,1862.763276,1862.763274,
   **   ~~~   ** Supply-to-demand interface deck 1 energy check value iteration history trace: 3026.767790,3026.767786,3026.767783,3026.767779,3026.767775,3026.767772,3026.767768,3026.767764,3026.767761,3026.767757,
   ** Warning ** SimHVAC: Maximum iterations (20) exceeded for all HVAC loops, at ANNUAL, 03/22 09:30 - 09:32
   **   ~~~   ** The solution for one or more of the Air Loop HVAC systems did not appear to converge
   **   ~~~   ** Air System Named = CENTRAL SYSTEM did not converge for mass flow rate
   **   ~~~   ** Check values should be zero. Most Recent values listed first.
   **   ~~~   ** Demand-to-Supply interface mass flow rate check value iteration history trace: 7.136812E-002,7.136812E-002,7.136812E-002,7.136812E-002,7.136812E-002,7.136812E-002,7.136812E-002,7.136812E-002,7.136812E-002,7.136812E-002,
   **   ~~~   ** Supply-to-demand interface deck 1 mass flow rate check value iteration history trace: 7.136812E-002,7.136812E-002,7.136812E-002,7.136812E-002,7.136812E-002,7.136812E-002,7.136812E-002,7.136812E-002,7.136812E-002,7.136812E-002,
   **   ~~~   ** Air System Named = CENTRAL SYSTEM did not converge for energy
   **   ~~~   ** Check values should be zero. Most Recent values listed first.
   **   ~~~   ** Demand-to-Supply interface energy check value iteration history trace: 1411.968778,1411.968777,1411.968777,1411.968776,1411.968775,1411.968775,1411.968774,1411.968773,1411.968773,1411.968772,
   **   ~~~   ** Supply-to-demand interface deck 1 energy check value iteration history trace: 2651.903679,2651.903678,2651.903677,2651.903676,2651.903674,2651.903673,2651.903672,2651.903671,2651.903669,2651.903668,
   ** Warning ** SimHVAC: Maximum iterations (20) exceeded for all HVAC loops, at ANNUAL, 03/25 09:25 - 09:30
   **   ~~~   ** The solution for one or more of the Air Loop HVAC systems did not appear to converge
   **   ~~~   ** Air System Named = CENTRAL SYSTEM did not converge for mass flow rate
   **   ~~~   ** Check values should be zero. Most Recent values listed first.
   **   ~~~   ** Demand-to-Supply interface mass flow rate check value iteration history trace: 8.338198E-002,8.338198E-002,8.338198E-002,8.338198E-002,8.338198E-002,8.338198E-002,8.338198E-002,8.338198E-002,8.338198E-002,8.338198E-002,
   **   ~~~   ** Supply-to-demand interface deck 1 mass flow rate check value iteration history trace: 8.338198E-002,8.338198E-002,8.338198E-002,8.338198E-002,8.338198E-002,8.338198E-002,8.338198E-002,8.338198E-002,8.338198E-002,8.338198E-002,
   **   ~~~   ** Air System Named = CENTRAL SYSTEM did not converge for energy
   **   ~~~   ** Check values should be zero. Most Recent values listed first.
   **   ~~~   ** Demand-to-Supply interface energy check value iteration history trace: 1646.827553,1646.827551,1646.827549,1646.827547,1646.827545,1646.827543,1646.827541,1646.827539,1646.827537,1646.827535,
   **   ~~~   ** Supply-to-demand interface deck 1 energy check value iteration history trace: 2965.119601,2965.119597,2965.119594,2965.119590,2965.119587,2965.119583,2965.119580,2965.119576,2965.119573,2965.119569,
   ** Warning ** SimHVAC: Maximum iterations (20) exceeded for all HVAC loops, at ANNUAL, 03/26 10:00 - 10:15
   **   ~~~   ** The solution for one or more of the Air Loop HVAC systems did not appear to converge
   **   ~~~   ** Air System Named = CENTRAL SYSTEM did not converge for mass flow rate
   **   ~~~   ** Check values should be zero. Most Recent values listed first.
   **   ~~~   ** Demand-to-Supply interface mass flow rate check value iteration history trace: 2.277267E-002,2.277267E-002,2.277267E-002,2.277267E-002,2.277267E-002,2.277267E-002,2.277267E-002,2.277267E-002,2.277267E-002,2.277267E-002,
   **   ~~~   ** Supply-to-demand interface deck 1 mass flow rate check value iteration history trace: 2.277267E-002,2.277267E-002,2.277267E-002,2.277267E-002,2.277267E-002,2.277267E-002,2.277267E-002,2.277267E-002,2.277267E-002,2.277267E-002,
   **   ~~~   ** Air System Named = CENTRAL SYSTEM did not converge for energy
   **   ~~~   ** Check values should be zero. Most Recent values listed first.
   **   ~~~   ** Demand-to-Supply interface energy check value iteration history trace: 451.272942,451.272941,451.272941,451.272941,451.272941,451.272940,451.272940,451.272940,451.272939,451.272939,
   **   ~~~   ** Supply-to-demand interface deck 1 energy check value iteration history trace: 823.730289,823.730289,823.730288,823.730288,823.730287,823.730287,823.730286,823.730285,823.730285,823.730284,
   ** Warning ** SimHVAC: Maximum iterations (20) exceeded for all HVAC loops, at ANNUAL, 05/07 09:00 - 09:15
   **   ~~~   ** The solution for one or more of the Air Loop HVAC systems did not appear to converge
   **   ~~~   ** Air System Named = CENTRAL SYSTEM did not converge for mass flow rate
   **   ~~~   ** Check values should be zero. Most Recent values listed first.
   **   ~~~   ** Demand-to-Supply interface mass flow rate check value iteration history trace: 6.240057E-002,6.240057E-002,6.240057E-002,6.240057E-002,6.240057E-002,6.240057E-002,6.240057E-002,6.240057E-002,6.240057E-002,6.240057E-002,
   **   ~~~   ** Supply-to-demand interface deck 1 mass flow rate check value iteration history trace: 6.240057E-002,6.240057E-002,6.240057E-002,6.240057E-002,6.240057E-002,6.240057E-002,6.240057E-002,6.240057E-002,6.240057E-002,6.240057E-002,
   **   ~~~   ** Air System Named = CENTRAL SYSTEM did not converge for energy
   **   ~~~   ** Check values should be zero. Most Recent values listed first.
   **   ~~~   ** Demand-to-Supply interface energy check value iteration history trace: 1225.965834,1225.965833,1225.965831,1225.965830,1225.965829,1225.965827,1225.965826,1225.965825,1225.965824,1225.965822,
   **   ~~~   ** Supply-to-demand interface deck 1 energy check value iteration history trace: 2322.373725,2322.373723,2322.373720,2322.373718,2322.373715,2322.373713,2322.373711,2322.373708,2322.373706,2322.373703,
   ** Warning ** SimHVAC: Maximum iterations (20) exceeded for all HVAC loops, at ANNUAL, 05/10 08:09 - 08:12
   **   ~~~   ** The solution for one or more of the Air Loop HVAC systems did not appear to converge
   **   ~~~   ** Air System Named = CENTRAL SYSTEM did not converge for mass flow rate
   **   ~~~   ** Check values should be zero. Most Recent values listed first.
   **   ~~~   ** Demand-to-Supply interface mass flow rate check value iteration history trace: 5.805744E-002,5.805744E-002,5.805744E-002,5.805744E-002,5.805744E-002,5.805744E-002,5.805744E-002,5.805744E-002,5.805744E-002,5.805744E-002,
   **   ~~~   ** Supply-to-demand interface deck 1 mass flow rate check value iteration history trace: 5.805744E-002,5.805744E-002,5.805744E-002,5.805744E-002,5.805744E-002,5.805744E-002,5.805744E-002,5.805744E-002,5.805744E-002,5.805744E-002,
   **   ~~~   ** Air System Named = CENTRAL SYSTEM did not converge for energy
   **   ~~~   ** Check values should be zero. Most Recent values listed first.
   **   ~~~   ** Demand-to-Supply interface energy check value iteration history trace: 1142.607179,1142.607178,1142.607177,1142.607176,1142.607175,1142.607174,1142.607173,1142.607172,1142.607171,1142.607171,
   **   ~~~   ** Supply-to-demand interface deck 1 energy check value iteration history trace: 2159.222844,2159.222842,2159.222841,2159.222839,2159.222837,2159.222836,2159.222834,2159.222832,2159.222831,2159.222829,
   ** Warning ** SimHVAC: Maximum iterations (20) exceeded for all HVAC loops, at ANNUAL, 05/10 08:45 - 08:49
   **   ~~~   ** The solution for one or more of the Air Loop HVAC systems did not appear to converge
   **   ~~~   ** Air System Named = CENTRAL SYSTEM did not converge for mass flow rate
   **   ~~~   ** Check values should be zero. Most Recent values listed first.
   **   ~~~   ** Demand-to-Supply interface mass flow rate check value iteration history trace: 7.131649E-002,7.131649E-002,7.131648E-002,7.131648E-002,7.131648E-002,7.131648E-002,7.131648E-002,7.131648E-002,7.131648E-002,7.131648E-002,
   **   ~~~   ** Supply-to-demand interface deck 1 mass flow rate check value iteration history trace: 7.131649E-002,7.131649E-002,7.131648E-002,7.131648E-002,7.131648E-002,7.131648E-002,7.131648E-002,7.131648E-002,7.131648E-002,7.131648E-002,
   **   ~~~   ** Air System Named = CENTRAL SYSTEM did not converge for energy
   **   ~~~   ** Check values should be zero. Most Recent values listed first.
   **   ~~~   ** Demand-to-Supply interface energy check value iteration history trace: 1403.062224,1403.062222,1403.062221,1403.062220,1403.062218,1403.062217,1403.062216,1403.062214,1403.062213,1403.062212,
   **   ~~~   ** Supply-to-demand interface deck 1 energy check value iteration history trace: 2675.943688,2675.943685,2675.943683,2675.943680,2675.943678,2675.943675,2675.943673,2675.943670,2675.943668,2675.943665,
   ** Warning ** SimHVAC: Maximum iterations (20) exceeded for all HVAC loops, at ANNUAL, 05/10 08:49 - 08:52
   **   ~~~   ** The solution for one or more of the Air Loop HVAC systems did not appear to converge
   **   ~~~   ** Air System Named = CENTRAL SYSTEM did not converge for mass flow rate
   **   ~~~   ** Check values should be zero. Most Recent values listed first.
   **   ~~~   ** Demand-to-Supply interface mass flow rate check value iteration history trace: 7.065516E-002,7.065516E-002,7.065516E-002,7.065516E-002,7.065516E-002,7.065516E-002,7.065516E-002,7.065516E-002,7.065516E-002,7.065516E-002,
   **   ~~~   ** Supply-to-demand interface deck 1 mass flow rate check value iteration history trace: 7.065516E-002,7.065516E-002,7.065516E-002,7.065516E-002,7.065516E-002,7.065516E-002,7.065516E-002,7.065516E-002,7.065516E-002,7.065516E-002,
   **   ~~~   ** Air System Named = CENTRAL SYSTEM did not converge for energy
   **   ~~~   ** Check values should be zero. Most Recent values listed first.
   **   ~~~   ** Demand-to-Supply interface energy check value iteration history trace: 1384.023296,1384.023295,1384.023294,1384.023292,1384.023291,1384.023290,1384.023289,1384.023287,1384.023286,1384.023285,
   **   ~~~   ** Supply-to-demand interface deck 1 energy check value iteration history trace: 2645.571486,2645.571483,2645.571481,2645.571478,2645.571476,2645.571473,2645.571471,2645.571468,2645.571466,2645.571463,
   ** Warning ** SimHVAC: Maximum iterations (20) exceeded for all HVAC loops, at ANNUAL, 05/11 11:15 - 11:20
   **   ~~~   ** The solution for one or more of the Air Loop HVAC systems did not appear to converge
   **   ~~~   ** Air System Named = CENTRAL SYSTEM did not converge for mass flow rate
   **   ~~~   ** Check values should be zero. Most Recent values listed first.
   **   ~~~   ** Demand-to-Supply interface mass flow rate check value iteration history trace: 6.326309E-002,6.326309E-002,6.326309E-002,6.326309E-002,6.326309E-002,6.326309E-002,6.326309E-002,6.326309E-002,6.326309E-002,6.326309E-002,
   **   ~~~   ** Supply-to-demand interface deck 1 mass flow rate check value iteration history trace: 6.326309E-002,6.326309E-002,6.326309E-002,6.326309E-002,6.326309E-002,6.326309E-002,6.326309E-002,6.326309E-002,6.326309E-002,6.326309E-002,
   **   ~~~   ** Air System Named = CENTRAL SYSTEM did not converge for energy
   **   ~~~   ** Check values should be zero. Most Recent values listed first.
   **   ~~~   ** Demand-to-Supply interface energy check value iteration history trace: 1253.657350,1253.657349,1253.657348,1253.657348,1253.657347,1253.657347,1253.657346,1253.657345,1253.657345,1253.657344,
   **   ~~~   ** Supply-to-demand interface deck 1 energy check value iteration history trace: 2369.188702,2369.188701,2369.188700,2369.188698,2369.188697,2369.188696,2369.188695,2369.188693,2369.188692,2369.188691,
   ** Warning ** SimHVAC: Maximum iterations (20) exceeded for all HVAC loops, at ANNUAL, 10/10 07:00 - 07:15
   **   ~~~   ** The solution for one or more of the Air Loop HVAC systems did not appear to converge
   **   ~~~   ** Air System Named = CENTRAL SYSTEM did not converge for mass flow rate
   **   ~~~   ** Check values should be zero. Most Recent values listed first.
   **   ~~~   ** Demand-to-Supply interface mass flow rate check value iteration history trace: 6.953845E-002,6.953845E-002,6.953845E-002,6.953845E-002,6.953845E-002,6.953845E-002,6.953845E-002,6.953845E-002,6.953845E-002,6.953845E-002,
   **   ~~~   ** Supply-to-demand interface deck 1 mass flow rate check value iteration history trace: 6.953845E-002,6.953845E-002,6.953845E-002,6.953845E-002,6.953845E-002,6.953845E-002,6.953845E-002,6.953845E-002,6.953845E-002,6.953845E-002,
   **   ~~~   ** Air System Named = CENTRAL SYSTEM did not converge for energy
   **   ~~~   ** Check values should be zero. Most Recent values listed first.
   **   ~~~   ** Demand-to-Supply interface energy check value iteration history trace: 1377.844313,1377.844312,1377.844311,1377.844310,1377.844309,1377.844308,1377.844307,1377.844306,1377.844305,1377.844304,
   **   ~~~   ** Supply-to-demand interface deck 1 energy check value iteration history trace: 2486.441987,2486.441985,2486.441983,2486.441981,2486.441980,2486.441978,2486.441976,2486.441974,2486.441972,2486.441970,
   ** Warning ** SimHVAC: Maximum iterations (20) exceeded for all HVAC loops, at ANNUAL, 10/19 09:00 - 09:15
   **   ~~~   ** The solution for one or more of the Air Loop HVAC systems did not appear to converge
   **   ~~~   ** Air System Named = CENTRAL SYSTEM did not converge for mass flow rate
   **   ~~~   ** Check values should be zero. Most Recent values listed first.
   **   ~~~   ** Demand-to-Supply interface mass flow rate check value iteration history trace: 7.024985E-002,7.024985E-002,7.024985E-002,7.024985E-002,7.024985E-002,7.024985E-002,7.024985E-002,7.024985E-002,7.024985E-002,7.024985E-002,
   **   ~~~   ** Supply-to-demand interface deck 1 mass flow rate check value iteration history trace: 7.024985E-002,7.024985E-002,7.024985E-002,7.024985E-002,7.024985E-002,7.024985E-002,7.024985E-002,7.024985E-002,7.024985E-002,7.024985E-002,
   **   ~~~   ** Air System Named = CENTRAL SYSTEM did not converge for energy
   **   ~~~   ** Check values should be zero. Most Recent values listed first.
   **   ~~~   ** Demand-to-Supply interface energy check value iteration history trace: 1392.277911,1392.277910,1392.277909,1392.277908,1392.277907,1392.277906,1392.277904,1392.277903,1392.277902,1392.277901,
   **   ~~~   ** Supply-to-demand interface deck 1 energy check value iteration history trace: 2516.359642,2516.359640,2516.359638,2516.359636,2516.359634,2516.359632,2516.359630,2516.359628,2516.359626,2516.359623,
   ** Warning ** SimHVAC: Maximum iterations (20) exceeded for all HVAC loops, at ANNUAL, 10/19 09:12 - 09:15
   **   ~~~   ** The solution for one or more of the Air Loop HVAC systems did not appear to converge
   **   ~~~   ** Air System Named = CENTRAL SYSTEM did not converge for mass flow rate
   **   ~~~   ** Check values should be zero. Most Recent values listed first.
   **   ~~~   ** Demand-to-Supply interface mass flow rate check value iteration history trace: 7.394941E-002,7.394941E-002,7.394941E-002,7.394941E-002,7.394941E-002,7.394941E-002,7.394941E-002,7.394941E-002,7.394941E-002,7.394941E-002,
   **   ~~~   ** Supply-to-demand interface deck 1 mass flow rate check value iteration history trace: 7.394941E-002,7.394941E-002,7.394941E-002,7.394941E-002,7.394941E-002,7.394941E-002,7.394941E-002,7.394941E-002,7.394941E-002,7.394941E-002,
   **   ~~~   ** Air System Named = CENTRAL SYSTEM did not converge for energy
   **   ~~~   ** Check values should be zero. Most Recent values listed first.
   **   ~~~   ** Demand-to-Supply interface energy check value iteration history trace: 1465.606544,1465.606542,1465.606541,1465.606540,1465.606539,1465.606538,1465.606536,1465.606535,1465.606534,1465.606533,
   **   ~~~   ** Supply-to-demand interface deck 1 energy check value iteration history trace: 2648.798647,2648.798645,2648.798643,2648.798641,2648.798639,2648.798636,2648.798634,2648.798632,2648.798630,2648.798628,
   ** Warning ** SimHVAC: Maximum iterations (20) exceeded for all HVAC loops, at ANNUAL, 10/24 06:30 - 06:45
   **   ~~~   ** The solution for one or more of the Air Loop HVAC systems did not appear to converge
   **   ~~~   ** Air System Named = CENTRAL SYSTEM did not converge for mass flow rate
   **   ~~~   ** Check values should be zero. Most Recent values listed first.
   **   ~~~   ** Demand-to-Supply interface mass flow rate check value iteration history trace: 6.006799E-002,6.006799E-002,6.006799E-002,6.006799E-002,6.006799E-002,6.006799E-002,6.006799E-002,6.006799E-002,6.006799E-002,6.006799E-002,
   **   ~~~   ** Supply-to-demand interface deck 1 mass flow rate check value iteration history trace: 6.006799E-002,6.006799E-002,6.006799E-002,6.006799E-002,6.006799E-002,6.006799E-002,6.006799E-002,6.006799E-002,6.006799E-002,6.006799E-002,
   **   ~~~   ** Air System Named = CENTRAL SYSTEM did not converge for energy
   **   ~~~   ** Check values should be zero. Most Recent values listed first.
   **   ~~~   ** Demand-to-Supply interface energy check value iteration history trace: 1189.240735,1189.240734,1189.240734,1189.240733,1189.240733,1189.240732,1189.240731,1189.240731,1189.240730,1189.240730,
   **   ~~~   ** Supply-to-demand interface deck 1 energy check value iteration history trace: 2254.831807,2254.831806,2254.831805,2254.831804,2254.831803,2254.831802,2254.831801,2254.831800,2254.831798,2254.831797,
   ** Warning ** SimHVAC: Maximum iterations (20) exceeded for all HVAC loops, at ANNUAL, 11/05 14:00 - 14:15
   **   ~~~   ** The solution for one or more of the Air Loop HVAC systems did not appear to converge
   **   ~~~   ** Air System Named = CENTRAL SYSTEM did not converge for mass flow rate
   **   ~~~   ** Check values should be zero. Most Recent values listed first.
   **   ~~~   ** Demand-to-Supply interface mass flow rate check value iteration history trace: 7.659047E-002,7.659047E-002,7.659047E-002,7.659047E-002,7.659047E-002,7.659047E-002,7.659047E-002,7.659047E-002,7.659047E-002,7.659047E-002,
   **   ~~~   ** Supply-to-demand interface deck 1 mass flow rate check value iteration history trace: 7.659047E-002,7.659047E-002,7.659047E-002,7.659047E-002,7.659047E-002,7.659047E-002,7.659047E-002,7.659047E-002,7.659047E-002,7.659047E-002,
   **   ~~~   ** Air System Named = CENTRAL SYSTEM did not converge for energy
   **   ~~~   ** Check values should be zero. Most Recent values listed first.
   **   ~~~   ** Demand-to-Supply interface energy check value iteration history trace: 1511.481368,1511.481365,1511.481362,1511.481359,1511.481356,1511.481353,1511.481350,1511.481347,1511.481344,1511.481341,
   **   ~~~   ** Supply-to-demand interface deck 1 energy check value iteration history trace: 2482.521137,2482.521132,2482.521127,2482.521122,2482.521117,2482.521112,2482.521107,2482.521102,2482.521097,2482.521092,
   ************* Simulation Error Summary *************
   ** Warning ** The following Report Variables were requested but not generated -- check.rdd file
   **   ~~~   ** Either the IDF did not contain these elements, the variable name is misspelled,
   **   ~~~   ** or the requested variable is an advanced output which requires Output : Diagnostics, DisplayAdvancedReportVariables;
   ************* Key=*, VarName=BASEBOARD TOTAL HEATING ENERGY, Frequency=
   ************* Key=*, VarName=WATER HEATER NATURALGAS ENERGY, Frequency=
   ************* Key=*, VarName=COOLING COIL TOTAL HEATING ENERGY, Frequency=
   ************* There are 34 unused schedules in input.
   ************* There are 388 unused week schedules in input.
   ************* There are 397 unused day schedules in input.
   ************* Use Output:Diagnostics,DisplayUnusedSchedules; to see them.
   *************
   ************* ===== Recurring Error Summary =====
   ************* The following recurring error messages occurred.
   *************
   *************  ** Warning ** "TOTAL HOT WATER LOAD" - Target water temperature should be less than or equal to the hot water temperature error continues...
   *************  **   ~~~   **   This error occurred 78529 total times;
   *************  **   ~~~   **   during Warmup 0 times;
   *************  **   ~~~   **   during Sizing 0 times.
   *************  **   ~~~   **   Max=12.008985  Min=4.970456E-004
   *************
   *************  ** Warning ** SimHVAC: Exceeding Maximum iterations for all HVAC loops, during ANNUAL continues
   *************  **   ~~~   **   This error occurred 4 total times;
   *************  **   ~~~   **   during Warmup 0 times;
   *************  **   ~~~   **   during Sizing 0 times.
   *************
   *************
   ************* ===== Final Error Summary =====
   ************* The following error categories occurred.  Consider correcting or noting.
   ************* Nominally Unused Constructions
   ************* ..The nominally unused constructions warning is provided to alert you to potential conditions that can cause
   ************* ..extra time during simulation. Each construction is calculated by the algorithm indicated in the HeatBalanceAlgorithm
   ************* ..object. You may remove the constructions indicated (when you use the DisplayExtraWarnings option).
   *************
   ************* EnergyPlus Warmup Error Summary. During Warmup: 0 Warning; 0 Severe Errors.
   ************* EnergyPlus Sizing Error Summary. During Sizing: 4 Warning; 0 Severe Errors.
   ************* EnergyPlus Completed Successfully-- 78564 Warning; 0 Severe Errors; Elapsed Time=00hr 05min 10.32sec
