Program Version,EnergyPlus, Version 22.2.0-c249759bad, YMD=2023.09.01 19:52,
   ************* Beginning Zone Sizing Calculations
   ** Warning ** ProcessScheduleInput: Schedule:Constant="ALWAYS ON DISCRETE", Schedule Type Limits Name="ONOFF" not found -- will not be validated
   ** Warning ** Foundation:Kiva="KIVA FOUNDATION", no Interior Horizontal Insulation Material Name defined
   **   ~~~   ** Interior Horizontal Insulation Depth will not be used.
   ** Warning ** CheckUsedConstructions: There are 15 nominally unused constructions in input.
   **   ~~~   ** Each Unused construction is shown.
   ************* Construction=INTERIOR FLOOR
   ************* Construction=INTERIOR WINDOW
   ************* Construction=EXTERIOR DOOR
   ************* Construction=INTERIOR DOOR
   ************* Construction=GABLE CONSTRUCTION
   ************* Construction=CRAWL_FLOOR
   ************* Construction=INSULATED PIPE
   ************* Construction=PLAIN PIPE
   ************* Construction=TDD PIPE
   ************* Construction=TDD DOME
   ************* Construction=TDD DIFFUSER
   ************* Construction=CRAWL WALL
   ************* Construction=CEILING-FLOOR-LAYER
   ************* Construction=SLAB CONSTRUCTION W FULL R10 INSULATION
   ************* Construction=SLAB CONSTRUCTION W FULL R5 INSULATION
   ** Warning ** GetDXCoils: Coil:Heating:DX:SingleSpeed="DX_HEATING_COIL" curve values
   **   ~~~   ** ... Defrost Energy Input Ratio Function of Temperature Curve Name = DEFROSTEIR output is not equal to 1.0 (+ or - 10%) at rated conditions.
   **   ~~~   ** ... Curve output at rated conditions = 0.152
   ************* Beginning System Sizing Calculations
   ************* Beginning Plant Sizing Calculations
   ** Warning ** Coil:WaterHeating:AirToWaterHeatPump:Wrapped "HEAT PUMP WATER HEATER EVAPORATOR": Rated air volume flow rate per watt of rated total water heating capacity is out of range
   **   ~~~   ** Min Rated Vol Flow Per Watt=[4.027E-005], Rated Vol Flow Per Watt=[1.510E-004], Max Rated Vol Flow Per Watt=[8.056E-005]. See Input-Output Reference Manual for valid range.
   ************* SizeFan: : Potential issue with equipment sizing for Fan:OnOff HEAT PUMP WATER HEATER FAN
   **   ~~~   ** User-Specified Maximum Flow Rate [m3/s] = 0.22653
   **   ~~~   ** differs from Design Size Maximum Flow Rate [m3/s] = 7.55250E-002
   **   ~~~   ** This may, or may not, indicate mismatched component sizes.
   **   ~~~   ** Verify that the value entered is intended and is consistent with other components.
   ** Warning ** Water heater = WATER HEATER TANK:  Recovery Efficiency and Energy Factor could not be calculated during the test for standard ratings
   **   ~~~   ** Setpoint was never recovered and/or heater never turned on
   ** Warning ** Check input. Pump nominal power or motor efficiency is set to 0, for pump=MAINS PRESSURE
   ** Warning ** Output:Meter: invalid Key Name="ELECTRIC_RANGE:INTERIOREQUIPMENT:ELECTRICITY" - not found.
   ** Warning ** Output:Meter: invalid Key Name="ELECTRIC_DRYER:INTERIOREQUIPMENT:ELECTRICITY" - not found.
   ** Warning ** Output:Meter: invalid Key Name="HEATRECOVERY:ELECTRICITY" - not found.
   ** Warning ** Output:Meter: invalid Key Name="HEATING:NATURALGAS" - not found.
   ** Warning ** Output:Meter: invalid Key Name="WATERSYSTEMS:NATURALGAS" - not found.
   ** Warning ** Output:Meter: invalid Key Name="PROPANE:FACILITY" - not found.
   ** Warning ** Output:Meter: invalid Key Name="HEATING:PROPANE" - not found.
   ************* Testing Individual Branch Integrity
   ************* All Branches passed integrity testing
   ************* Testing Individual Supply Air Path Integrity
   ************* All Supply Air Paths passed integrity testing
   ************* Testing Individual Return Air Path Integrity
   ************* All Return Air Paths passed integrity testing
   ************* No node connection errors were found.
   ************* Beginning Simulation
   ** Warning ** AirflowNetwork::Solver::validate_distribution: Heat pump water heater is simulated along with an AirflowNetwork but is not included in the AirflowNetwork.
   ** Warning ** CalcEquipmentFlowRates: "TOTAL HOT WATER LOAD" - Target water temperature is greater than the hot water temperature by (4.98 C)
   **   ~~~   **  Environment=EXTREME_WINTER, at Simulation time=01/06 06:00 - 06:15
   **   ~~~   ** ...target water temperature     = 53.33 C
   **   ~~~   ** ...hot water temperature        = 48.36 C
   **   ~~~   ** ...Target water temperature should be less than or equal to the hot water temperature. Verify temperature setpoints and schedules.
   ** Warning ** SimHVAC: Maximum iterations (20) exceeded for all HVAC loops, at EXTREME_WINTER, 01/10 09:55 - 10:00
   **   ~~~   ** The solution for one or more of the Air Loop HVAC systems did not appear to converge
   **   ~~~   ** Air System Named = CENTRAL SYSTEM did not converge for mass flow rate
   **   ~~~   ** Check values should be zero. Most Recent values listed first.
   **   ~~~   ** Demand-to-Supply interface mass flow rate check value iteration history trace: 6.631418E-002,6.631418E-002,6.631418E-002,6.631418E-002,6.631418E-002,6.631418E-002,6.631418E-002,6.631418E-002,6.631418E-002,6.631418E-002,
   **   ~~~   ** Supply-to-demand interface deck 1 mass flow rate check value iteration history trace: 6.631418E-002,6.631418E-002,6.631418E-002,6.631418E-002,6.631418E-002,6.631418E-002,6.631418E-002,6.631418E-002,6.631418E-002,6.631418E-002,
   **   ~~~   ** Air System Named = CENTRAL SYSTEM did not converge for energy
   **   ~~~   ** Check values should be zero. Most Recent values listed first.
   **   ~~~   ** Demand-to-Supply interface energy check value iteration history trace: 1314.094571,1314.094571,1314.094571,1314.094571,1314.094571,1314.094571,1314.094571,1314.094571,1314.094571,1314.094571,
   **   ~~~   ** Supply-to-demand interface deck 1 energy check value iteration history trace: 2164.960865,2164.960864,2164.960864,2164.960864,2164.960864,2164.960864,2164.960864,2164.960864,2164.960864,2164.960864,
   ** Warning ** SimHVAC: Maximum iterations (20) exceeded for all HVAC loops, at EXTREME_WINTER, 01/12 11:00 - 11:15
   **   ~~~   ** The solution for one or more of the Air Loop HVAC systems did not appear to converge
   **   ~~~   ** Air System Named = CENTRAL SYSTEM did not converge for mass flow rate
   **   ~~~   ** Check values should be zero. Most Recent values listed first.
   **   ~~~   ** Demand-to-Supply interface mass flow rate check value iteration history trace: 5.147212E-002,5.147212E-002,5.147212E-002,5.147212E-002,5.147212E-002,5.147212E-002,5.147212E-002,5.147212E-002,5.147212E-002,5.147212E-002,
   **   ~~~   ** Supply-to-demand interface deck 1 mass flow rate check value iteration history trace: 5.147212E-002,5.147212E-002,5.147212E-002,5.147212E-002,5.147212E-002,5.147212E-002,5.147212E-002,5.147212E-002,5.147212E-002,5.147212E-002,
   **   ~~~   ** Air System Named = CENTRAL SYSTEM did not converge for energy
   **   ~~~   ** Check values should be zero. Most Recent values listed first.
   **   ~~~   ** Demand-to-Supply interface energy check value iteration history trace: 1019.951464,1019.951464,1019.951464,1019.951464,1019.951464,1019.951464,1019.951464,1019.951464,1019.951464,1019.951463,
   **   ~~~   ** Supply-to-demand interface deck 1 energy check value iteration history trace: 1903.563759,1903.563759,1903.563759,1903.563759,1903.563759,1903.563759,1903.563759,1903.563759,1903.563759,1903.563759,
   ** Warning ** SimHVAC: Maximum iterations (20) exceeded for all HVAC loops, at ANNUAL, 01/12 06:30 - 06:38
   **   ~~~   ** The solution for one or more of the Air Loop HVAC systems did not appear to converge
   **   ~~~   ** Air System Named = CENTRAL SYSTEM did not converge for mass flow rate
   **   ~~~   ** Check values should be zero. Most Recent values listed first.
   **   ~~~   ** Demand-to-Supply interface mass flow rate check value iteration history trace: 5.038069E-002,5.038069E-002,5.038069E-002,5.038069E-002,5.038069E-002,5.038069E-002,5.038069E-002,5.038069E-002,5.038069E-002,5.038069E-002,
   **   ~~~   ** Supply-to-demand interface deck 1 mass flow rate check value iteration history trace: 5.038069E-002,5.038069E-002,5.038069E-002,5.038069E-002,5.038069E-002,5.038069E-002,5.038069E-002,5.038069E-002,5.038069E-002,5.038069E-002,
   **   ~~~   ** Air System Named = CENTRAL SYSTEM did not converge for energy
   **   ~~~   ** Check values should be zero. Most Recent values listed first.
   **   ~~~   ** Demand-to-Supply interface energy check value iteration history trace: 997.892525,997.892525,997.892525,997.892525,997.892525,997.892525,997.892525,997.892525,997.892525,997.892525,
   **   ~~~   ** Supply-to-demand interface deck 1 energy check value iteration history trace: 1882.021954,1882.021954,1882.021954,1882.021954,1882.021954,1882.021954,1882.021954,1882.021954,1882.021954,1882.021954,
   ** Warning ** SimHVAC: Maximum iterations (20) exceeded for all HVAC loops, at ANNUAL, 03/05 01:00 - 01:08
   **   ~~~   ** The solution for one or more of the Air Loop HVAC systems did not appear to converge
   **   ~~~   ** Air System Named = CENTRAL SYSTEM did not converge for mass flow rate
   **   ~~~   ** Check values should be zero. Most Recent values listed first.
   **   ~~~   ** Demand-to-Supply interface mass flow rate check value iteration history trace: 5.254720E-002,5.254720E-002,5.254720E-002,5.254720E-002,5.254720E-002,5.254720E-002,5.254720E-002,5.254720E-002,5.254720E-002,5.254720E-002,
   **   ~~~   ** Supply-to-demand interface deck 1 mass flow rate check value iteration history trace: 5.254720E-002,5.254720E-002,5.254720E-002,5.254720E-002,5.254720E-002,5.254720E-002,5.254720E-002,5.254720E-002,5.254720E-002,5.254720E-002,
   **   ~~~   ** Air System Named = CENTRAL SYSTEM did not converge for energy
   **   ~~~   ** Check values should be zero. Most Recent values listed first.
   **   ~~~   ** Demand-to-Supply interface energy check value iteration history trace: 981.423158,981.423158,981.423158,981.423158,981.423158,981.423157,981.423157,981.423157,981.423157,981.423157,
   **   ~~~   ** Supply-to-demand interface deck 1 energy check value iteration history trace: 1522.941421,1522.941421,1522.941421,1522.941421,1522.941421,1522.941421,1522.941421,1522.941421,1522.941420,1522.941420,
   ** Warning ** SimHVAC: Maximum iterations (20) exceeded for all HVAC loops, at ANNUAL, 04/04 08:23 - 08:30
   **   ~~~   ** The solution for one or more of the Air Loop HVAC systems did not appear to converge
   **   ~~~   ** Air System Named = CENTRAL SYSTEM did not converge for mass flow rate
   **   ~~~   ** Check values should be zero. Most Recent values listed first.
   **   ~~~   ** Demand-to-Supply interface mass flow rate check value iteration history trace: 0.248013,0.248013,0.248013,0.248013,0.248013,0.248013,0.248013,0.248013,0.248013,0.248013,
   **   ~~~   ** Supply-to-demand interface deck 1 mass flow rate check value iteration history trace: 0.248013,0.248013,0.248013,0.248013,0.248013,0.248013,0.248013,0.248013,0.248013,0.248013,
   **   ~~~   ** Air System Named = CENTRAL SYSTEM did not converge for energy
   **   ~~~   ** Check values should be zero. Most Recent values listed first.
   **   ~~~   ** Demand-to-Supply interface energy check value iteration history trace: 5971.458793,5971.458794,5971.458795,5971.458797,5971.458798,5971.458799,5971.458800,5971.458802,5971.458803,5971.458804,
   **   ~~~   ** Supply-to-demand interface deck 1 energy check value iteration history trace: 2940.716515,2940.716516,2940.716516,2940.716517,2940.716518,2940.716518,2940.716519,2940.716519,2940.716520,2940.716521,
   ** Warning ** SimHVAC: Maximum iterations (20) exceeded for all HVAC loops, at ANNUAL, 04/05 07:57 - 08:00
   **   ~~~   ** The solution for one or more of the Air Loop HVAC systems did not appear to converge
   **   ~~~   ** Air System Named = CENTRAL SYSTEM did not converge for mass flow rate
   **   ~~~   ** Check values should be zero. Most Recent values listed first.
   **   ~~~   ** Demand-to-Supply interface mass flow rate check value iteration history trace: 0.285390,0.285390,0.285390,0.285390,0.285390,0.285390,0.285390,0.285390,0.285390,0.285390,
   **   ~~~   ** Supply-to-demand interface deck 1 mass flow rate check value iteration history trace: 0.285390,0.285390,0.285390,0.285390,0.285390,0.285390,0.285390,0.285390,0.285390,0.285390,
   **   ~~~   ** Air System Named = CENTRAL SYSTEM did not converge for energy
   **   ~~~   ** Check values should be zero. Most Recent values listed first.
   **   ~~~   ** Demand-to-Supply interface energy check value iteration history trace: 6829.152660,6829.152662,6829.152664,6829.152666,6829.152668,6829.152670,6829.152672,6829.152674,6829.152676,6829.152678,
   **   ~~~   ** Supply-to-demand interface deck 1 energy check value iteration history trace: 3523.037165,3523.037166,3523.037167,3523.037168,3523.037169,3523.037170,3523.037171,3523.037172,3523.037173,3523.037174,
   ** Warning ** SimHVAC: Maximum iterations (20) exceeded for all HVAC loops, at ANNUAL, 10/26 07:00 - 07:15
   **   ~~~   ** The solution for one or more of the Air Loop HVAC systems did not appear to converge
   **   ~~~   ** Air System Named = CENTRAL SYSTEM did not converge for mass flow rate
   **   ~~~   ** Check values should be zero. Most Recent values listed first.
   **   ~~~   ** Demand-to-Supply interface mass flow rate check value iteration history trace: 8.564458E-002,8.564458E-002,8.564458E-002,8.564458E-002,8.564458E-002,8.564458E-002,8.564458E-002,8.564458E-002,8.564458E-002,8.564458E-002,
   **   ~~~   ** Supply-to-demand interface deck 1 mass flow rate check value iteration history trace: 8.564458E-002,8.564458E-002,8.564458E-002,8.564458E-002,8.564458E-002,8.564458E-002,8.564458E-002,8.564458E-002,8.564458E-002,8.564458E-002,
   **   ~~~   ** Air System Named = CENTRAL SYSTEM did not converge for energy
   **   ~~~   ** Check values should be zero. Most Recent values listed first.
   **   ~~~   ** Demand-to-Supply interface energy check value iteration history trace: 1697.294488,1697.294487,1697.294487,1697.294487,1697.294487,1697.294487,1697.294487,1697.294487,1697.294487,1697.294487,
   **   ~~~   ** Supply-to-demand interface deck 1 energy check value iteration history trace: 2653.440737,2653.440737,2653.440736,2653.440736,2653.440736,2653.440736,2653.440736,2653.440735,2653.440735,2653.440735,
   ** Warning ** SimHVAC: Maximum iterations (20) exceeded for all HVAC loops, at ANNUAL, 11/30 18:50 - 18:55
   **   ~~~   ** The solution for one or more of the Air Loop HVAC systems did not appear to converge
   **   ~~~   ** Air System Named = CENTRAL SYSTEM did not converge for mass flow rate
   **   ~~~   ** Check values should be zero. Most Recent values listed first.
   **   ~~~   ** Demand-to-Supply interface mass flow rate check value iteration history trace: 0.110060,0.110060,0.110060,0.110060,0.110060,0.110060,0.110060,0.110060,0.110060,0.110060,
   **   ~~~   ** Supply-to-demand interface deck 1 mass flow rate check value iteration history trace: 0.110060,0.110060,0.110060,0.110060,0.110060,0.110060,0.110060,0.110060,0.110060,0.110060,
   **   ~~~   ** Air System Named = CENTRAL SYSTEM did not converge for energy
   **   ~~~   ** Check values should be zero. Most Recent values listed first.
   **   ~~~   ** Demand-to-Supply interface energy check value iteration history trace: 2599.363972,2599.363972,2599.363972,2599.363972,2599.363973,2599.363973,2599.363973,2599.363973,2599.363973,2599.363973,
   **   ~~~   ** Supply-to-demand interface deck 1 energy check value iteration history trace: 913.373835,913.373835,913.373835,913.373835,913.373835,913.373835,913.373835,913.373835,913.373835,913.373835,
   ** Warning ** SimHVAC: Maximum iterations (20) exceeded for all HVAC loops, at ANNUAL, 12/02 10:55 - 11:00
   **   ~~~   ** The solution for one or more of the Air Loop HVAC systems did not appear to converge
   **   ~~~   ** Air System Named = CENTRAL SYSTEM did not converge for mass flow rate
   **   ~~~   ** Check values should be zero. Most Recent values listed first.
   **   ~~~   ** Demand-to-Supply interface mass flow rate check value iteration history trace: 0.259811,0.259811,0.259811,0.259811,0.259811,0.259811,0.259811,0.259811,0.259811,0.259811,
   **   ~~~   ** Supply-to-demand interface deck 1 mass flow rate check value iteration history trace: 0.259811,0.259811,0.259811,0.259811,0.259811,0.259811,0.259811,0.259811,0.259811,0.259811,
   **   ~~~   ** Air System Named = CENTRAL SYSTEM did not converge for energy
   **   ~~~   ** Check values should be zero. Most Recent values listed first.
   **   ~~~   ** Demand-to-Supply interface energy check value iteration history trace: 6210.077002,6210.077003,6210.077005,6210.077006,6210.077008,6210.077009,6210.077011,6210.077012,6210.077014,6210.077015,
   **   ~~~   ** Supply-to-demand interface deck 1 energy check value iteration history trace: 3050.957530,3050.957531,3050.957532,3050.957533,3050.957533,3050.957534,3050.957535,3050.957536,3050.957536,3050.957537,
   ** Warning ** SimHVAC: Maximum iterations (20) exceeded for all HVAC loops, at ANNUAL, 12/20 13:15 - 13:22
   **   ~~~   ** The solution for one or more of the Air Loop HVAC systems did not appear to converge
   **   ~~~   ** Air System Named = CENTRAL SYSTEM did not converge for mass flow rate
   **   ~~~   ** Check values should be zero. Most Recent values listed first.
   **   ~~~   ** Demand-to-Supply interface mass flow rate check value iteration history trace: 4.320687E-002,4.320687E-002,4.320687E-002,4.320687E-002,4.320687E-002,4.320687E-002,4.320687E-002,4.320687E-002,4.320687E-002,4.320687E-002,
   **   ~~~   ** Supply-to-demand interface deck 1 mass flow rate check value iteration history trace: 4.320687E-002,4.320687E-002,4.320687E-002,4.320687E-002,4.320687E-002,4.320687E-002,4.320687E-002,4.320687E-002,4.320687E-002,4.320687E-002,
   **   ~~~   ** Air System Named = CENTRAL SYSTEM did not converge for energy
   **   ~~~   ** Check values should be zero. Most Recent values listed first.
   **   ~~~   ** Demand-to-Supply interface energy check value iteration history trace: 862.647786,862.647786,862.647786,862.647786,862.647786,862.647786,862.647786,862.647786,862.647786,862.647786,
   **   ~~~   ** Supply-to-demand interface deck 1 energy check value iteration history trace: 1604.545233,1604.545232,1604.545232,1604.545232,1604.545232,1604.545232,1604.545232,1604.545232,1604.545232,1604.545232,
   ** Warning ** SimHVAC: Maximum iterations (20) exceeded for all HVAC loops, at ANNUAL, 12/21 15:45 - 16:00
   **   ~~~   ** The solution for one or more of the Air Loop HVAC systems did not appear to converge
   **   ~~~   ** Air System Named = CENTRAL SYSTEM did not converge for mass flow rate
   **   ~~~   ** Check values should be zero. Most Recent values listed first.
   **   ~~~   ** Demand-to-Supply interface mass flow rate check value iteration history trace: 5.401502E-002,5.401502E-002,5.401502E-002,5.401502E-002,5.401502E-002,5.401502E-002,5.401502E-002,5.401502E-002,5.401502E-002,5.401502E-002,
   **   ~~~   ** Supply-to-demand interface deck 1 mass flow rate check value iteration history trace: 5.401502E-002,5.401502E-002,5.401502E-002,5.401502E-002,5.401502E-002,5.401502E-002,5.401502E-002,5.401502E-002,5.401502E-002,5.401502E-002,
   **   ~~~   ** Air System Named = CENTRAL SYSTEM did not converge for energy
   **   ~~~   ** Check values should be zero. Most Recent values listed first.
   **   ~~~   ** Demand-to-Supply interface energy check value iteration history trace: 1068.695694,1068.695694,1068.695694,1068.695694,1068.695694,1068.695694,1068.695694,1068.695694,1068.695694,1068.695694,
   **   ~~~   ** Supply-to-demand interface deck 1 energy check value iteration history trace: 1932.005206,1932.005206,1932.005206,1932.005206,1932.005206,1932.005206,1932.005206,1932.005206,1932.005206,1932.005206,
   ************* Simulation Error Summary *************
   ** Warning ** The following Report Variables were requested but not generated -- check.rdd file
   **   ~~~   ** Either the IDF did not contain these elements, the variable name is misspelled,
   **   ~~~   ** or the requested variable is an advanced output which requires Output : Diagnostics, DisplayAdvancedReportVariables;
   ************* Key=*, VarName=BASEBOARD TOTAL HEATING ENERGY, Frequency=
   ************* Key=*, VarName=WATER HEATER NATURALGAS ENERGY, Frequency=
   ************* Key=*, VarName=COOLING COIL TOTAL HEATING ENERGY, Frequency=
   ************* There are 34 unused schedules in input.
   ************* There are 388 unused week schedules in input.
   ************* There are 396 unused day schedules in input.
   ************* Use Output:Diagnostics,DisplayUnusedSchedules; to see them.
   *************
   ************* ===== Recurring Error Summary =====
   ************* The following recurring error messages occurred.
   *************
   *************  ** Warning ** "TOTAL HOT WATER LOAD" - Target water temperature should be less than or equal to the hot water temperature error continues...
   *************  **   ~~~   **   This error occurred 133339 total times;
   *************  **   ~~~   **   during Warmup 0 times;
   *************  **   ~~~   **   during Sizing 0 times.
   *************  **   ~~~   **   Max=10.748561  Min=3.392637E-004
   *************
   *************
   ************* ===== Final Error Summary =====
   ************* The following error categories occurred.  Consider correcting or noting.
   ************* Nominally Unused Constructions
   ************* ..The nominally unused constructions warning is provided to alert you to potential conditions that can cause
   ************* ..extra time during simulation. Each construction is calculated by the algorithm indicated in the HeatBalanceAlgorithm
   ************* ..object. You may remove the constructions indicated (when you use the DisplayExtraWarnings option).
   *************
   ************* EnergyPlus Warmup Error Summary. During Warmup: 1 Warning; 0 Severe Errors.
   ************* EnergyPlus Sizing Error Summary. During Sizing: 4 Warning; 0 Severe Errors.
   ************* EnergyPlus Completed Successfully-- 133367 Warning; 0 Severe Errors; Elapsed Time=00hr 01min 39.46sec
