Program Version,EnergyPlus, Version 9.5.0-de239b2e5f, YMD=2022.09.06 17:37
