Program Version,EnergyPlus, Version 22.2.0-c249759bad, YMD=2023.09.01 15:02,
   ************* Beginning Zone Sizing Calculations
   ** Warning ** ProcessScheduleInput: Schedule:Constant="ALWAYS ON DISCRETE", Schedule Type Limits Name="ONOFF" not found -- will not be validated
   ** Warning ** Foundation:Kiva="KIVA FOUNDATION", no Interior Horizontal Insulation Material Name defined
   **   ~~~   ** Interior Horizontal Insulation Depth will not be used.
   ** Warning ** CheckUsedConstructions: There are 15 nominally unused constructions in input.
   **   ~~~   ** Each Unused construction is shown.
   ************* Construction=INTERIOR FLOOR
   ************* Construction=INTERIOR WINDOW
   ************* Construction=EXTERIOR DOOR
   ************* Construction=INTERIOR DOOR
   ************* Construction=GABLE CONSTRUCTION
   ************* Construction=CRAWL_FLOOR
   ************* Construction=INSULATED PIPE
   ************* Construction=PLAIN PIPE
   ************* Construction=TDD PIPE
   ************* Construction=TDD DOME
   ************* Construction=TDD DIFFUSER
   ************* Construction=CRAWL WALL
   ************* Construction=CEILING-FLOOR-LAYER
   ************* Construction=SLAB CONSTRUCTION W FULL R10 INSULATION
   ************* Construction=SLAB CONSTRUCTION W FULL R5 INSULATION
   ** Warning ** GetDXCoils: Coil:Heating:DX:SingleSpeed="DX_HEATING_COIL" curve values
   **   ~~~   ** ... Defrost Energy Input Ratio Function of Temperature Curve Name = DEFROSTEIR output is not equal to 1.0 (+ or - 10%) at rated conditions.
   **   ~~~   ** ... Curve output at rated conditions = 0.152
   ************* Beginning System Sizing Calculations
   ************* Beginning Plant Sizing Calculations
   ** Warning ** SizeDXCoil Coil:Cooling:DX:SingleSpeed DX_COOLING_COIL
   **   ~~~   ** ...Gross Rated Total Cooling Capacity [W] will be limited by the maximum rated volume flow per rated total capacity ratio.
   **   ~~~   ** ...DX coil volume flow rate ( m3/s ) = 0.409856
   **   ~~~   ** ...Requested capacity ( W ) = 6558.641
   **   ~~~   ** ...Requested flow/capacity ratio ( m3/s/W ) = 6.249E-005
   **   ~~~   ** ...Maximum flow/capacity ratio ( m3/s/W ) = 6.041E-005
   **   ~~~   ** ...Adjusted capacity ( W ) = 6784.584
   ** Warning ** Coil:WaterHeating:AirToWaterHeatPump:Wrapped "HEAT PUMP WATER HEATER EVAPORATOR": Rated air volume flow rate per watt of rated total water heating capacity is out of range
   **   ~~~   ** Min Rated Vol Flow Per Watt=[4.027E-005], Rated Vol Flow Per Watt=[1.386E-004], Max Rated Vol Flow Per Watt=[8.056E-005]. See Input-Output Reference Manual for valid range.
   ** Warning ** Water heater = WATER HEATER TANK:  Recovery Efficiency and Energy Factor could not be calculated during the test for standard ratings
   **   ~~~   ** Setpoint was never recovered and/or heater never turned on
   ** Warning ** Check input. Pump nominal power or motor efficiency is set to 0, for pump=MAINS PRESSURE
   ** Warning ** AirflowNetwork::Solver::validate_distribution: Heat pump water heater is simulated along with an AirflowNetwork but is not included in the AirflowNetwork.
   ** Warning ** Output:Meter: invalid Key Name="ELECTRIC_RANGE:INTERIOREQUIPMENT:ELECTRICITY" - not found.
   ** Warning ** Output:Meter: invalid Key Name="ELECTRIC_DRYER:INTERIOREQUIPMENT:ELECTRICITY" - not found.
   ** Warning ** Output:Meter: invalid Key Name="HEATRECOVERY:ELECTRICITY" - not found.
   ** Warning ** Output:Meter: invalid Key Name="HEATING:NATURALGAS" - not found.
   ** Warning ** Output:Meter: invalid Key Name="WATERSYSTEMS:NATURALGAS" - not found.
   ** Warning ** Output:Meter: invalid Key Name="PROPANE:FACILITY" - not found.
   ** Warning ** Output:Meter: invalid Key Name="HEATING:PROPANE" - not found.
   ************* Testing Individual Branch Integrity
   ************* All Branches passed integrity testing
   ************* Testing Individual Supply Air Path Integrity
   ************* All Supply Air Paths passed integrity testing
   ************* Testing Individual Return Air Path Integrity
   ************* All Return Air Paths passed integrity testing
   ************* No node connection errors were found.
   ************* Beginning Simulation
   ** Warning ** CalcEquipmentFlowRates: "TOTAL HOT WATER LOAD" - Target water temperature is greater than the hot water temperature by (1.65 C)
   **   ~~~   **  Environment=EXTREME_WINTER, at Simulation time=01/29 06:00 - 06:15
   **   ~~~   ** ...target water temperature     = 53.33 C
   **   ~~~   ** ...hot water temperature        = 51.68 C
   **   ~~~   ** ...Target water temperature should be less than or equal to the hot water temperature. Verify temperature setpoints and schedules.
   ** Warning ** SimHVAC: Maximum iterations (20) exceeded for all HVAC loops, at ANNUAL, 04/04 20:30 - 20:45
   **   ~~~   ** The solution for one or more of the Air Loop HVAC systems did not appear to converge
   **   ~~~   ** Air System Named = CENTRAL SYSTEM did not converge for mass flow rate
   **   ~~~   ** Check values should be zero. Most Recent values listed first.
   **   ~~~   ** Demand-to-Supply interface mass flow rate check value iteration history trace: 0.113469,0.113469,0.113469,0.113469,0.113469,0.113469,0.113469,0.113469,0.113469,0.113469,
   **   ~~~   ** Supply-to-demand interface deck 1 mass flow rate check value iteration history trace: 0.113469,0.113469,0.113469,0.113469,0.113469,0.113469,0.113469,0.113469,0.113469,0.113469,
   **   ~~~   ** Air System Named = CENTRAL SYSTEM did not converge for energy
   **   ~~~   ** Check values should be zero. Most Recent values listed first.
   **   ~~~   ** Demand-to-Supply interface energy check value iteration history trace: 2228.746082,2228.746082,2228.746082,2228.746082,2228.746081,2228.746081,2228.746081,2228.746081,2228.746081,2228.746081,
   **   ~~~   ** Supply-to-demand interface deck 1 energy check value iteration history trace: 3327.835387,3327.835387,3327.835386,3327.835386,3327.835386,3327.835386,3327.835385,3327.835385,3327.835385,3327.835385,
   ** Warning ** SimHVAC: Maximum iterations (20) exceeded for all HVAC loops, at ANNUAL, 05/02 08:26 - 08:30
   **   ~~~   ** The solution for one or more of the Air Loop HVAC systems did not appear to converge
   **   ~~~   ** Air System Named = CENTRAL SYSTEM did not converge for mass flow rate
   **   ~~~   ** Check values should be zero. Most Recent values listed first.
   **   ~~~   ** Demand-to-Supply interface mass flow rate check value iteration history trace: 6.553710E-002,6.553710E-002,6.553710E-002,6.553710E-002,6.553710E-002,6.553710E-002,6.553710E-002,6.553710E-002,6.553710E-002,6.553710E-002,
   **   ~~~   ** Supply-to-demand interface deck 1 mass flow rate check value iteration history trace: 6.553710E-002,6.553710E-002,6.553710E-002,6.553710E-002,6.553710E-002,6.553710E-002,6.553710E-002,6.553710E-002,6.553710E-002,6.553710E-002,
   **   ~~~   ** Air System Named = CENTRAL SYSTEM did not converge for energy
   **   ~~~   ** Check values should be zero. Most Recent values listed first.
   **   ~~~   ** Demand-to-Supply interface energy check value iteration history trace: 1296.087309,1296.087309,1296.087309,1296.087309,1296.087309,1296.087309,1296.087309,1296.087309,1296.087309,1296.087309,
   **   ~~~   ** Supply-to-demand interface deck 1 energy check value iteration history trace: 2408.067618,2408.067617,2408.067617,2408.067617,2408.067617,2408.067617,2408.067617,2408.067617,2408.067617,2408.067617,
   ** Warning ** SimHVAC: Maximum iterations (20) exceeded for all HVAC loops, at ANNUAL, 05/11 06:15 - 06:30
   **   ~~~   ** The solution for one or more of the Air Loop HVAC systems did not appear to converge
   **   ~~~   ** Air System Named = CENTRAL SYSTEM did not converge for mass flow rate
   **   ~~~   ** Check values should be zero. Most Recent values listed first.
   **   ~~~   ** Demand-to-Supply interface mass flow rate check value iteration history trace: 6.645182E-002,6.645182E-002,6.645182E-002,6.645182E-002,6.645182E-002,6.645182E-002,6.645182E-002,6.645182E-002,6.645182E-002,6.645182E-002,
   **   ~~~   ** Supply-to-demand interface deck 1 mass flow rate check value iteration history trace: 6.645182E-002,6.645182E-002,6.645182E-002,6.645182E-002,6.645182E-002,6.645182E-002,6.645182E-002,6.645182E-002,6.645182E-002,6.645182E-002,
   **   ~~~   ** Air System Named = CENTRAL SYSTEM did not converge for energy
   **   ~~~   ** Check values should be zero. Most Recent values listed first.
   **   ~~~   ** Demand-to-Supply interface energy check value iteration history trace: 1314.159298,1314.159298,1314.159298,1314.159298,1314.159298,1314.159298,1314.159298,1314.159298,1314.159298,1314.159298,
   **   ~~~   ** Supply-to-demand interface deck 1 energy check value iteration history trace: 2369.904579,2369.904579,2369.904579,2369.904578,2369.904578,2369.904578,2369.904578,2369.904578,2369.904578,2369.904578,
   ** Warning ** SimHVAC: Maximum iterations (20) exceeded for all HVAC loops, at ANNUAL, 05/28 09:53 - 09:55
   **   ~~~   ** The solution for one or more of the Air Loop HVAC systems did not appear to converge
   **   ~~~   ** Air System Named = CENTRAL SYSTEM did not converge for mass flow rate
   **   ~~~   ** Check values should be zero. Most Recent values listed first.
   **   ~~~   ** Demand-to-Supply interface mass flow rate check value iteration history trace: 6.055142E-002,6.055142E-002,6.055142E-002,6.055142E-002,6.055142E-002,6.055142E-002,6.055142E-002,6.055142E-002,6.055142E-002,6.055142E-002,
   **   ~~~   ** Supply-to-demand interface deck 1 mass flow rate check value iteration history trace: 6.055142E-002,6.055142E-002,6.055142E-002,6.055142E-002,6.055142E-002,6.055142E-002,6.055142E-002,6.055142E-002,6.055142E-002,6.055142E-002,
   **   ~~~   ** Air System Named = CENTRAL SYSTEM did not converge for energy
   **   ~~~   ** Check values should be zero. Most Recent values listed first.
   **   ~~~   ** Demand-to-Supply interface energy check value iteration history trace: 1198.776389,1198.776389,1198.776389,1198.776389,1198.776389,1198.776389,1198.776389,1198.776389,1198.776389,1198.776389,
   **   ~~~   ** Supply-to-demand interface deck 1 energy check value iteration history trace: 2242.231851,2242.231851,2242.231851,2242.231851,2242.231851,2242.231851,2242.231851,2242.231851,2242.231851,2242.231850,
   ** Warning ** SimHVAC: Maximum iterations (20) exceeded for all HVAC loops, at ANNUAL, 06/04 07:20 - 07:25
   **   ~~~   ** The solution for one or more of the Air Loop HVAC systems did not appear to converge
   **   ~~~   ** Air System Named = CENTRAL SYSTEM did not converge for mass flow rate
   **   ~~~   ** Check values should be zero. Most Recent values listed first.
   **   ~~~   ** Demand-to-Supply interface mass flow rate check value iteration history trace: 5.863546E-002,5.863546E-002,5.863546E-002,5.863546E-002,5.863546E-002,5.863546E-002,5.863546E-002,5.863546E-002,5.863546E-002,5.863546E-002,
   **   ~~~   ** Supply-to-demand interface deck 1 mass flow rate check value iteration history trace: 5.863546E-002,5.863546E-002,5.863546E-002,5.863546E-002,5.863546E-002,5.863546E-002,5.863546E-002,5.863546E-002,5.863546E-002,5.863546E-002,
   **   ~~~   ** Air System Named = CENTRAL SYSTEM did not converge for energy
   **   ~~~   ** Check values should be zero. Most Recent values listed first.
   **   ~~~   ** Demand-to-Supply interface energy check value iteration history trace: 1162.197353,1162.197353,1162.197353,1162.197353,1162.197353,1162.197353,1162.197353,1162.197353,1162.197353,1162.197353,
   **   ~~~   ** Supply-to-demand interface deck 1 energy check value iteration history trace: 2104.546018,2104.546018,2104.546018,2104.546018,2104.546018,2104.546018,2104.546017,2104.546017,2104.546017,2104.546017,
   ** Warning ** SimHVAC: Maximum iterations (20) exceeded for all HVAC loops, at ANNUAL, 06/20 07:53 - 08:00
   **   ~~~   ** The solution for one or more of the Air Loop HVAC systems did not appear to converge
   **   ~~~   ** Air System Named = CENTRAL SYSTEM did not converge for mass flow rate
   **   ~~~   ** Check values should be zero. Most Recent values listed first.
   **   ~~~   ** Demand-to-Supply interface mass flow rate check value iteration history trace: 0.265875,0.265875,0.265875,0.265875,0.265875,0.265875,0.265875,0.265875,0.265875,0.265875,
   **   ~~~   ** Supply-to-demand interface deck 1 mass flow rate check value iteration history trace: 0.265875,0.265875,0.265875,0.265875,0.265875,0.265875,0.265875,0.265875,0.265875,0.265875,
   **   ~~~   ** Air System Named = CENTRAL SYSTEM did not converge for energy
   **   ~~~   ** Check values should be zero. Most Recent values listed first.
   **   ~~~   ** Demand-to-Supply interface energy check value iteration history trace: 6455.433135,6455.433136,6455.433136,6455.433137,6455.433137,6455.433138,6455.433138,6455.433139,6455.433139,6455.433140,
   **   ~~~   ** Supply-to-demand interface deck 1 energy check value iteration history trace: 3894.760094,3894.760094,3894.760095,3894.760095,3894.760095,3894.760095,3894.760096,3894.760096,3894.760096,3894.760097,
   ** Warning ** SimHVAC: Maximum iterations (20) exceeded for all HVAC loops, at ANNUAL, 06/20 08:25 - 08:30
   **   ~~~   ** The solution for one or more of the Air Loop HVAC systems did not appear to converge
   **   ~~~   ** Air System Named = CENTRAL SYSTEM did not converge for mass flow rate
   **   ~~~   ** Check values should be zero. Most Recent values listed first.
   **   ~~~   ** Demand-to-Supply interface mass flow rate check value iteration history trace: 0.224626,0.224626,0.224626,0.224626,0.224626,0.224626,0.224626,0.224626,0.224626,0.224626,
   **   ~~~   ** Supply-to-demand interface deck 1 mass flow rate check value iteration history trace: 0.224626,0.224626,0.224626,0.224626,0.224626,0.224626,0.224626,0.224626,0.224626,0.224626,
   **   ~~~   ** Air System Named = CENTRAL SYSTEM did not converge for energy
   **   ~~~   ** Check values should be zero. Most Recent values listed first.
   **   ~~~   ** Demand-to-Supply interface energy check value iteration history trace: 5344.955895,5344.955895,5344.955896,5344.955896,5344.955897,5344.955897,5344.955898,5344.955898,5344.955898,5344.955899,
   **   ~~~   ** Supply-to-demand interface deck 1 energy check value iteration history trace: 3196.950333,3196.950333,3196.950334,3196.950334,3196.950334,3196.950335,3196.950335,3196.950335,3196.950335,3196.950336,
   ** Warning ** SimHVAC: Maximum iterations (20) exceeded for all HVAC loops, at ANNUAL, 06/23 07:25 - 07:30
   **   ~~~   ** The solution for one or more of the Air Loop HVAC systems did not appear to converge
   **   ~~~   ** Air System Named = CENTRAL SYSTEM did not converge for mass flow rate
   **   ~~~   ** Check values should be zero. Most Recent values listed first.
   **   ~~~   ** Demand-to-Supply interface mass flow rate check value iteration history trace: 0.316526,0.316526,0.316526,0.316526,0.316526,0.316526,0.316526,0.316526,0.316526,0.316526,
   **   ~~~   ** Supply-to-demand interface deck 1 mass flow rate check value iteration history trace: 0.316526,0.316526,0.316526,0.316526,0.316526,0.316526,0.316526,0.316526,0.316526,0.316526,
   **   ~~~   ** Air System Named = CENTRAL SYSTEM did not converge for energy
   **   ~~~   ** Check values should be zero. Most Recent values listed first.
   **   ~~~   ** Demand-to-Supply interface energy check value iteration history trace: 7569.853018,7569.853018,7569.853019,7569.853020,7569.853020,7569.853021,7569.853021,7569.853022,7569.853023,7569.853023,
   **   ~~~   ** Supply-to-demand interface deck 1 energy check value iteration history trace: 4212.090080,4212.090081,4212.090081,4212.090081,4212.090082,4212.090082,4212.090082,4212.090083,4212.090083,4212.090083,
   ** Warning ** SimHVAC: Maximum iterations (20) exceeded for all HVAC loops, at ANNUAL, 09/11 07:30 - 07:35
   **   ~~~   ** The solution for one or more of the Air Loop HVAC systems did not appear to converge
   **   ~~~   ** Air System Named = CENTRAL SYSTEM did not converge for mass flow rate
   **   ~~~   ** Check values should be zero. Most Recent values listed first.
   **   ~~~   ** Demand-to-Supply interface mass flow rate check value iteration history trace: 7.212744E-002,7.212744E-002,7.212744E-002,7.212744E-002,7.212744E-002,7.212744E-002,7.212744E-002,7.212744E-002,7.212744E-002,7.212744E-002,
   **   ~~~   ** Supply-to-demand interface deck 1 mass flow rate check value iteration history trace: 7.212744E-002,7.212744E-002,7.212744E-002,7.212744E-002,7.212744E-002,7.212744E-002,7.212744E-002,7.212744E-002,7.212744E-002,7.212744E-002,
   **   ~~~   ** Air System Named = CENTRAL SYSTEM did not converge for energy
   **   ~~~   ** Check values should be zero. Most Recent values listed first.
   **   ~~~   ** Demand-to-Supply interface energy check value iteration history trace: 1413.375604,1413.375604,1413.375604,1413.375604,1413.375604,1413.375604,1413.375604,1413.375604,1413.375604,1413.375604,
   **   ~~~   ** Supply-to-demand interface deck 1 energy check value iteration history trace: 2503.142077,2503.142077,2503.142077,2503.142077,2503.142077,2503.142077,2503.142077,2503.142077,2503.142077,2503.142076,
   ** Warning ** SimHVAC: Maximum iterations (20) exceeded for all HVAC loops, at ANNUAL, 09/17 08:03 - 08:06
   **   ~~~   ** The solution for one or more of the Air Loop HVAC systems did not appear to converge
   **   ~~~   ** Air System Named = CENTRAL SYSTEM did not converge for mass flow rate
   **   ~~~   ** Check values should be zero. Most Recent values listed first.
   **   ~~~   ** Demand-to-Supply interface mass flow rate check value iteration history trace: 6.501451E-002,6.501451E-002,6.501451E-002,6.501451E-002,6.501451E-002,6.501451E-002,6.501451E-002,6.501451E-002,6.501451E-002,6.501451E-002,
   **   ~~~   ** Supply-to-demand interface deck 1 mass flow rate check value iteration history trace: 6.501451E-002,6.501451E-002,6.501451E-002,6.501451E-002,6.501451E-002,6.501451E-002,6.501451E-002,6.501451E-002,6.501451E-002,6.501451E-002,
   **   ~~~   ** Air System Named = CENTRAL SYSTEM did not converge for energy
   **   ~~~   ** Check values should be zero. Most Recent values listed first.
   **   ~~~   ** Demand-to-Supply interface energy check value iteration history trace: 1526.615262,1526.615262,1526.615263,1526.615263,1526.615264,1526.615264,1526.615264,1526.615265,1526.615265,1526.615266,
   **   ~~~   ** Supply-to-demand interface deck 1 energy check value iteration history trace: 872.410671,872.410672,872.410672,872.410672,872.410672,872.410672,872.410673,872.410673,872.410673,872.410673,
   ** Warning ** SimHVAC: Maximum iterations (20) exceeded for all HVAC loops, at ANNUAL, 10/01 08:53 - 08:54
   **   ~~~   ** The solution for one or more of the Air Loop HVAC systems did not appear to converge
   **   ~~~   ** Air System Named = CENTRAL SYSTEM did not converge for mass flow rate
   **   ~~~   ** Check values should be zero. Most Recent values listed first.
   **   ~~~   ** Demand-to-Supply interface mass flow rate check value iteration history trace: 6.739539E-002,6.739539E-002,6.739539E-002,6.739539E-002,6.739539E-002,6.739539E-002,6.739539E-002,6.739539E-002,6.739539E-002,6.739539E-002,
   **   ~~~   ** Supply-to-demand interface deck 1 mass flow rate check value iteration history trace: 6.739539E-002,6.739539E-002,6.739539E-002,6.739539E-002,6.739539E-002,6.739539E-002,6.739539E-002,6.739539E-002,6.739539E-002,6.739539E-002,
   **   ~~~   ** Air System Named = CENTRAL SYSTEM did not converge for energy
   **   ~~~   ** Check values should be zero. Most Recent values listed first.
   **   ~~~   ** Demand-to-Supply interface energy check value iteration history trace: 1330.314934,1330.314934,1330.314934,1330.314933,1330.314933,1330.314933,1330.314933,1330.314933,1330.314933,1330.314933,
   **   ~~~   ** Supply-to-demand interface deck 1 energy check value iteration history trace: 2525.470530,2525.470530,2525.470530,2525.470530,2525.470529,2525.470529,2525.470529,2525.470529,2525.470529,2525.470529,
   ** Warning ** SimHVAC: Maximum iterations (20) exceeded for all HVAC loops, at ANNUAL, 10/03 08:50 - 08:52
   **   ~~~   ** The solution for one or more of the Air Loop HVAC systems did not appear to converge
   **   ~~~   ** Air System Named = CENTRAL SYSTEM did not converge for mass flow rate
   **   ~~~   ** Check values should be zero. Most Recent values listed first.
   **   ~~~   ** Demand-to-Supply interface mass flow rate check value iteration history trace: 6.852869E-002,6.852869E-002,6.852869E-002,6.852869E-002,6.852869E-002,6.852869E-002,6.852869E-002,6.852869E-002,6.852869E-002,6.852869E-002,
   **   ~~~   ** Supply-to-demand interface deck 1 mass flow rate check value iteration history trace: 6.852869E-002,6.852869E-002,6.852869E-002,6.852869E-002,6.852869E-002,6.852869E-002,6.852869E-002,6.852869E-002,6.852869E-002,6.852869E-002,
   **   ~~~   ** Air System Named = CENTRAL SYSTEM did not converge for energy
   **   ~~~   ** Check values should be zero. Most Recent values listed first.
   **   ~~~   ** Demand-to-Supply interface energy check value iteration history trace: 1352.207586,1352.207586,1352.207586,1352.207586,1352.207586,1352.207586,1352.207586,1352.207586,1352.207586,1352.207586,
   **   ~~~   ** Supply-to-demand interface deck 1 energy check value iteration history trace: 2452.042148,2452.042148,2452.042148,2452.042148,2452.042148,2452.042148,2452.042147,2452.042147,2452.042147,2452.042147,
   ** Warning ** SimHVAC: Maximum iterations (20) exceeded for all HVAC loops, at ANNUAL, 10/08 08:41 - 08:45
   **   ~~~   ** The solution for one or more of the Air Loop HVAC systems did not appear to converge
   **   ~~~   ** Air System Named = CENTRAL SYSTEM did not converge for mass flow rate
   **   ~~~   ** Check values should be zero. Most Recent values listed first.
   **   ~~~   ** Demand-to-Supply interface mass flow rate check value iteration history trace: 8.163788E-002,8.163788E-002,8.163788E-002,8.163788E-002,8.163788E-002,8.163788E-002,8.163788E-002,8.163788E-002,8.163788E-002,8.163788E-002,
   **   ~~~   ** Supply-to-demand interface deck 1 mass flow rate check value iteration history trace: 8.163788E-002,8.163788E-002,8.163788E-002,8.163788E-002,8.163788E-002,8.163788E-002,8.163788E-002,8.163788E-002,8.163788E-002,8.163788E-002,
   **   ~~~   ** Air System Named = CENTRAL SYSTEM did not converge for energy
   **   ~~~   ** Check values should be zero. Most Recent values listed first.
   **   ~~~   ** Demand-to-Supply interface energy check value iteration history trace: 1621.903215,1621.903215,1621.903215,1621.903215,1621.903215,1621.903215,1621.903215,1621.903215,1621.903215,1621.903215,
   **   ~~~   ** Supply-to-demand interface deck 1 energy check value iteration history trace: 2889.859209,2889.859209,2889.859209,2889.859209,2889.859209,2889.859209,2889.859209,2889.859208,2889.859208,2889.859208,
   ** Warning ** SimHVAC: Maximum iterations (20) exceeded for all HVAC loops, at ANNUAL, 10/28 11:45 - 11:52
   **   ~~~   ** The solution for one or more of the Air Loop HVAC systems did not appear to converge
   **   ~~~   ** Air System Named = CENTRAL SYSTEM did not converge for mass flow rate
   **   ~~~   ** Check values should be zero. Most Recent values listed first.
   **   ~~~   ** Demand-to-Supply interface mass flow rate check value iteration history trace: 6.878023E-002,6.878023E-002,6.878023E-002,6.878023E-002,6.878023E-002,6.878023E-002,6.878023E-002,6.878023E-002,6.878023E-002,6.878023E-002,
   **   ~~~   ** Supply-to-demand interface deck 1 mass flow rate check value iteration history trace: 6.878023E-002,6.878023E-002,6.878023E-002,6.878023E-002,6.878023E-002,6.878023E-002,6.878023E-002,6.878023E-002,6.878023E-002,6.878023E-002,
   **   ~~~   ** Air System Named = CENTRAL SYSTEM did not converge for energy
   **   ~~~   ** Check values should be zero. Most Recent values listed first.
   **   ~~~   ** Demand-to-Supply interface energy check value iteration history trace: 1362.934785,1362.934784,1362.934784,1362.934784,1362.934784,1362.934784,1362.934784,1362.934784,1362.934784,1362.934784,
   **   ~~~   ** Supply-to-demand interface deck 1 energy check value iteration history trace: 2148.950219,2148.950219,2148.950219,2148.950218,2148.950218,2148.950218,2148.950218,2148.950218,2148.950218,2148.950218,
   ************* Simulation Error Summary *************
   ** Warning ** The following Report Variables were requested but not generated -- check.rdd file
   **   ~~~   ** Either the IDF did not contain these elements, the variable name is misspelled,
   **   ~~~   ** or the requested variable is an advanced output which requires Output : Diagnostics, DisplayAdvancedReportVariables;
   ************* Key=*, VarName=BASEBOARD TOTAL HEATING ENERGY, Frequency=
   ************* Key=*, VarName=WATER HEATER NATURALGAS ENERGY, Frequency=
   ************* Key=*, VarName=COOLING COIL TOTAL HEATING ENERGY, Frequency=
   ************* There are 34 unused schedules in input.
   ************* There are 388 unused week schedules in input.
   ************* There are 396 unused day schedules in input.
   ************* Use Output:Diagnostics,DisplayUnusedSchedules; to see them.
   *************
   ************* ===== Recurring Error Summary =====
   ************* The following recurring error messages occurred.
   *************
   *************  ** Warning ** "TOTAL HOT WATER LOAD" - Target water temperature should be less than or equal to the hot water temperature error continues...
   *************  **   ~~~   **   This error occurred 90237 total times;
   *************  **   ~~~   **   during Warmup 0 times;
   *************  **   ~~~   **   during Sizing 0 times.
   *************  **   ~~~   **   Max=12.066403  Min=1.103011E-004
   *************
   *************  ** Warning ** SimHVAC: Exceeding Maximum iterations for all HVAC loops, during ANNUAL continues
   *************  **   ~~~   **   This error occurred 2 total times;
   *************  **   ~~~   **   during Warmup 0 times;
   *************  **   ~~~   **   during Sizing 0 times.
   *************
   *************
   ************* ===== Final Error Summary =====
   ************* The following error categories occurred.  Consider correcting or noting.
   ************* Nominally Unused Constructions
   ************* ..The nominally unused constructions warning is provided to alert you to potential conditions that can cause
   ************* ..extra time during simulation. Each construction is calculated by the algorithm indicated in the HeatBalanceAlgorithm
   ************* ..object. You may remove the constructions indicated (when you use the DisplayExtraWarnings option).
   *************
   ************* EnergyPlus Warmup Error Summary. During Warmup: 0 Warning; 0 Severe Errors.
   ************* EnergyPlus Sizing Error Summary. During Sizing: 4 Warning; 0 Severe Errors.
   ************* EnergyPlus Completed Successfully-- 90271 Warning; 0 Severe Errors; Elapsed Time=00hr 05min 17.41sec
