Program Version,EnergyPlus, Version 22.2.0-c249759bad, YMD=2023.09.01 20:04,
   ************* Beginning Zone Sizing Calculations
   ** Warning ** ProcessScheduleInput: Schedule:Constant="ALWAYS ON DISCRETE", Schedule Type Limits Name="ONOFF" not found -- will not be validated
   ** Warning ** Foundation:Kiva="KIVA FOUNDATION", no Interior Horizontal Insulation Material Name defined
   **   ~~~   ** Interior Horizontal Insulation Depth will not be used.
   ** Warning ** CheckUsedConstructions: There are 15 nominally unused constructions in input.
   **   ~~~   ** Each Unused construction is shown.
   ************* Construction=INTERIOR FLOOR
   ************* Construction=INTERIOR WINDOW
   ************* Construction=EXTERIOR DOOR
   ************* Construction=INTERIOR DOOR
   ************* Construction=GABLE CONSTRUCTION
   ************* Construction=CRAWL_FLOOR
   ************* Construction=INSULATED PIPE
   ************* Construction=PLAIN PIPE
   ************* Construction=TDD PIPE
   ************* Construction=TDD DOME
   ************* Construction=TDD DIFFUSER
   ************* Construction=CRAWL WALL
   ************* Construction=CEILING-FLOOR-LAYER
   ************* Construction=SLAB CONSTRUCTION W FULL R10 INSULATION
   ************* Construction=SLAB CONSTRUCTION W FULL R5 INSULATION
   ** Warning ** GetDXCoils: Coil:Heating:DX:SingleSpeed="DX_HEATING_COIL" curve values
   **   ~~~   ** ... Defrost Energy Input Ratio Function of Temperature Curve Name = DEFROSTEIR output is not equal to 1.0 (+ or - 10%) at rated conditions.
   **   ~~~   ** ... Curve output at rated conditions = 0.152
   ************* Beginning System Sizing Calculations
   ************* Beginning Plant Sizing Calculations
   ** Warning ** SizeDXCoil Coil:Cooling:DX:SingleSpeed DX_COOLING_COIL
   **   ~~~   ** ...Gross Rated Total Cooling Capacity [W] will be limited by the maximum rated volume flow per rated total capacity ratio.
   **   ~~~   ** ...DX coil volume flow rate ( m3/s ) = 0.480678
   **   ~~~   ** ...Requested capacity ( W ) = 6661.354
   **   ~~~   ** ...Requested flow/capacity ratio ( m3/s/W ) = 7.215E-005
   **   ~~~   ** ...Maximum flow/capacity ratio ( m3/s/W ) = 6.041E-005
   **   ~~~   ** ...Adjusted capacity ( W ) = 7956.941
   ** Warning ** Coil:WaterHeating:AirToWaterHeatPump:Wrapped "HEAT PUMP WATER HEATER EVAPORATOR": Rated air volume flow rate per watt of rated total water heating capacity is out of range
   **   ~~~   ** Min Rated Vol Flow Per Watt=[4.027E-005], Rated Vol Flow Per Watt=[1.510E-004], Max Rated Vol Flow Per Watt=[8.056E-005]. See Input-Output Reference Manual for valid range.
   ************* SizeFan: : Potential issue with equipment sizing for Fan:OnOff HEAT PUMP WATER HEATER FAN
   **   ~~~   ** User-Specified Maximum Flow Rate [m3/s] = 0.22653
   **   ~~~   ** differs from Design Size Maximum Flow Rate [m3/s] = 7.55250E-002
   **   ~~~   ** This may, or may not, indicate mismatched component sizes.
   **   ~~~   ** Verify that the value entered is intended and is consistent with other components.
   ** Warning ** Water heater = WATER HEATER TANK:  Recovery Efficiency and Energy Factor could not be calculated during the test for standard ratings
   **   ~~~   ** Setpoint was never recovered and/or heater never turned on
   ** Warning ** Check input. Pump nominal power or motor efficiency is set to 0, for pump=MAINS PRESSURE
   ** Warning ** Output:Meter: invalid Key Name="ELECTRIC_RANGE:INTERIOREQUIPMENT:ELECTRICITY" - not found.
   ** Warning ** Output:Meter: invalid Key Name="ELECTRIC_DRYER:INTERIOREQUIPMENT:ELECTRICITY" - not found.
   ** Warning ** Output:Meter: invalid Key Name="HEATRECOVERY:ELECTRICITY" - not found.
   ** Warning ** Output:Meter: invalid Key Name="HEATING:NATURALGAS" - not found.
   ** Warning ** Output:Meter: invalid Key Name="WATERSYSTEMS:NATURALGAS" - not found.
   ** Warning ** Output:Meter: invalid Key Name="PROPANE:FACILITY" - not found.
   ** Warning ** Output:Meter: invalid Key Name="HEATING:PROPANE" - not found.
   ************* Testing Individual Branch Integrity
   ************* All Branches passed integrity testing
   ************* Testing Individual Supply Air Path Integrity
   ************* All Supply Air Paths passed integrity testing
   ************* Testing Individual Return Air Path Integrity
   ************* All Return Air Paths passed integrity testing
   ************* No node connection errors were found.
   ************* Beginning Simulation
   ** Warning ** AirflowNetwork::Solver::validate_distribution: Heat pump water heater is simulated along with an AirflowNetwork but is not included in the AirflowNetwork.
   ** Warning ** CalcEquipmentFlowRates: "TOTAL HOT WATER LOAD" - Target water temperature is greater than the hot water temperature by (4.06 C)
   **   ~~~   **  Environment=EXTREME_WINTER, at Simulation time=03/05 07:00 - 07:15
   **   ~~~   ** ...target water temperature     = 53.33 C
   **   ~~~   ** ...hot water temperature        = 49.27 C
   **   ~~~   ** ...Target water temperature should be less than or equal to the hot water temperature. Verify temperature setpoints and schedules.
   ** Warning ** SimHVAC: Maximum iterations (20) exceeded for all HVAC loops, at ANNUAL, 01/27 12:56 - 13:00
   **   ~~~   ** The solution for one or more of the Air Loop HVAC systems did not appear to converge
   **   ~~~   ** Air System Named = CENTRAL SYSTEM did not converge for mass flow rate
   **   ~~~   ** Check values should be zero. Most Recent values listed first.
   **   ~~~   ** Demand-to-Supply interface mass flow rate check value iteration history trace: 5.477058E-002,5.477058E-002,5.477058E-002,5.477058E-002,5.477058E-002,5.477058E-002,5.477058E-002,5.477058E-002,5.477058E-002,5.477058E-002,
   **   ~~~   ** Supply-to-demand interface deck 1 mass flow rate check value iteration history trace: 5.477058E-002,5.477058E-002,5.477058E-002,5.477058E-002,5.477058E-002,5.477058E-002,5.477058E-002,5.477058E-002,5.477058E-002,5.477058E-002,
   **   ~~~   ** Air System Named = CENTRAL SYSTEM did not converge for energy
   **   ~~~   ** Check values should be zero. Most Recent values listed first.
   **   ~~~   ** Demand-to-Supply interface energy check value iteration history trace: 1082.188431,1082.188431,1082.188431,1082.188431,1082.188430,1082.188430,1082.188430,1082.188430,1082.188430,1082.188430,
   **   ~~~   ** Supply-to-demand interface deck 1 energy check value iteration history trace: 1957.092190,1957.092190,1957.092189,1957.092189,1957.092189,1957.092189,1957.092189,1957.092189,1957.092189,1957.092189,
   ** Warning ** Temperature out of range [-100. to 200.] (PsyPsatFnTemp)
   **   ~~~   **  Routine=PsyTwbFnTdbWPb, Environment=ANNUAL, at Simulation time=01/27 22:15 - 22:30
   **   ~~~   **  Input Temperature=-1100.64
   ** Warning ** SimHVAC: Maximum iterations (20) exceeded for all HVAC loops, at ANNUAL, 01/30 17:23 - 17:30
   **   ~~~   ** The solution for one or more of the Air Loop HVAC systems did not appear to converge
   **   ~~~   ** Air System Named = CENTRAL SYSTEM did not converge for mass flow rate
   **   ~~~   ** Check values should be zero. Most Recent values listed first.
   **   ~~~   ** Demand-to-Supply interface mass flow rate check value iteration history trace: 7.123188E-002,7.123188E-002,7.123188E-002,7.123188E-002,7.123188E-002,7.123188E-002,7.123188E-002,7.123188E-002,7.123188E-002,7.123188E-002,
   **   ~~~   ** Supply-to-demand interface deck 1 mass flow rate check value iteration history trace: 7.123188E-002,7.123188E-002,7.123188E-002,7.123188E-002,7.123188E-002,7.123188E-002,7.123188E-002,7.123188E-002,7.123188E-002,7.123188E-002,
   **   ~~~   ** Air System Named = CENTRAL SYSTEM did not converge for energy
   **   ~~~   ** Check values should be zero. Most Recent values listed first.
   **   ~~~   ** Demand-to-Supply interface energy check value iteration history trace: 1411.034052,1411.034052,1411.034052,1411.034051,1411.034051,1411.034051,1411.034051,1411.034051,1411.034051,1411.034051,
   **   ~~~   ** Supply-to-demand interface deck 1 energy check value iteration history trace: 2307.979486,2307.979486,2307.979486,2307.979486,2307.979486,2307.979486,2307.979486,2307.979486,2307.979485,2307.979485,
   ** Warning ** SimHVAC: Maximum iterations (20) exceeded for all HVAC loops, at ANNUAL, 02/04 12:15 - 12:18
   **   ~~~   ** The solution for one or more of the Air Loop HVAC systems did not appear to converge
   **   ~~~   ** Air System Named = CENTRAL SYSTEM did not converge for mass flow rate
   **   ~~~   ** Check values should be zero. Most Recent values listed first.
   **   ~~~   ** Demand-to-Supply interface mass flow rate check value iteration history trace: 6.731776E-002,6.731776E-002,6.731776E-002,6.731776E-002,6.731776E-002,6.731776E-002,6.731776E-002,6.731776E-002,6.731776E-002,6.731776E-002,
   **   ~~~   ** Supply-to-demand interface deck 1 mass flow rate check value iteration history trace: 6.731776E-002,6.731776E-002,6.731776E-002,6.731776E-002,6.731776E-002,6.731776E-002,6.731776E-002,6.731776E-002,6.731776E-002,6.731776E-002,
   **   ~~~   ** Air System Named = CENTRAL SYSTEM did not converge for energy
   **   ~~~   ** Check values should be zero. Most Recent values listed first.
   **   ~~~   ** Demand-to-Supply interface energy check value iteration history trace: 1334.001110,1334.001110,1334.001110,1334.001110,1334.001109,1334.001109,1334.001109,1334.001109,1334.001109,1334.001109,
   **   ~~~   ** Supply-to-demand interface deck 1 energy check value iteration history trace: 2109.616494,2109.616494,2109.616494,2109.616494,2109.616494,2109.616494,2109.616494,2109.616493,2109.616493,2109.616493,
   ** Warning ** SimHVAC: Maximum iterations (20) exceeded for all HVAC loops, at ANNUAL, 02/19 14:00 - 14:15
   **   ~~~   ** The solution for one or more of the Air Loop HVAC systems did not appear to converge
   **   ~~~   ** Air System Named = CENTRAL SYSTEM did not converge for mass flow rate
   **   ~~~   ** Check values should be zero. Most Recent values listed first.
   **   ~~~   ** Demand-to-Supply interface mass flow rate check value iteration history trace: 5.932151E-002,5.932151E-002,5.932151E-002,5.932151E-002,5.932151E-002,5.932151E-002,5.932151E-002,5.932151E-002,5.932151E-002,5.932151E-002,
   **   ~~~   ** Supply-to-demand interface deck 1 mass flow rate check value iteration history trace: 5.932151E-002,5.932151E-002,5.932151E-002,5.932151E-002,5.932151E-002,5.932151E-002,5.932151E-002,5.932151E-002,5.932151E-002,5.932151E-002,
   **   ~~~   ** Air System Named = CENTRAL SYSTEM did not converge for energy
   **   ~~~   ** Check values should be zero. Most Recent values listed first.
   **   ~~~   ** Demand-to-Supply interface energy check value iteration history trace: 1167.051894,1167.051894,1167.051893,1167.051893,1167.051893,1167.051893,1167.051893,1167.051893,1167.051893,1167.051893,
   **   ~~~   ** Supply-to-demand interface deck 1 energy check value iteration history trace: 1913.443728,1913.443728,1913.443728,1913.443728,1913.443727,1913.443727,1913.443727,1913.443727,1913.443727,1913.443727,
   ** Warning ** SimHVAC: Maximum iterations (20) exceeded for all HVAC loops, at ANNUAL, 02/19 18:15 - 18:30
   **   ~~~   ** The solution for one or more of the Air Loop HVAC systems did not appear to converge
   **   ~~~   ** Air System Named = CENTRAL SYSTEM did not converge for mass flow rate
   **   ~~~   ** Check values should be zero. Most Recent values listed first.
   **   ~~~   ** Demand-to-Supply interface mass flow rate check value iteration history trace: 6.800204E-002,6.800204E-002,6.800204E-002,6.800204E-002,6.800204E-002,6.800204E-002,6.800204E-002,6.800204E-002,6.800204E-002,6.800204E-002,
   **   ~~~   ** Supply-to-demand interface deck 1 mass flow rate check value iteration history trace: 6.800204E-002,6.800204E-002,6.800204E-002,6.800204E-002,6.800204E-002,6.800204E-002,6.800204E-002,6.800204E-002,6.800204E-002,6.800204E-002,
   **   ~~~   ** Air System Named = CENTRAL SYSTEM did not converge for energy
   **   ~~~   ** Check values should be zero. Most Recent values listed first.
   **   ~~~   ** Demand-to-Supply interface energy check value iteration history trace: 1339.250491,1339.250491,1339.250490,1339.250490,1339.250490,1339.250490,1339.250490,1339.250490,1339.250490,1339.250490,
   **   ~~~   ** Supply-to-demand interface deck 1 energy check value iteration history trace: 2152.418322,2152.418322,2152.418321,2152.418321,2152.418321,2152.418321,2152.418321,2152.418321,2152.418321,2152.418321,
   ** Warning ** SimHVAC: Maximum iterations (20) exceeded for all HVAC loops, at ANNUAL, 02/24 14:30 - 14:45
   **   ~~~   ** The solution for one or more of the Air Loop HVAC systems did not appear to converge
   **   ~~~   ** Air System Named = CENTRAL SYSTEM did not converge for mass flow rate
   **   ~~~   ** Check values should be zero. Most Recent values listed first.
   **   ~~~   ** Demand-to-Supply interface mass flow rate check value iteration history trace: 5.622009E-002,5.622009E-002,5.622009E-002,5.622009E-002,5.622009E-002,5.622009E-002,5.622009E-002,5.622009E-002,5.622009E-002,5.622009E-002,
   **   ~~~   ** Supply-to-demand interface deck 1 mass flow rate check value iteration history trace: 5.622009E-002,5.622009E-002,5.622009E-002,5.622009E-002,5.622009E-002,5.622009E-002,5.622009E-002,5.622009E-002,5.622009E-002,5.622009E-002,
   **   ~~~   ** Air System Named = CENTRAL SYSTEM did not converge for energy
   **   ~~~   ** Check values should be zero. Most Recent values listed first.
   **   ~~~   ** Demand-to-Supply interface energy check value iteration history trace: 1111.746745,1111.746745,1111.746745,1111.746745,1111.746745,1111.746745,1111.746745,1111.746744,1111.746744,1111.746744,
   **   ~~~   ** Supply-to-demand interface deck 1 energy check value iteration history trace: 1808.879472,1808.879471,1808.879471,1808.879471,1808.879471,1808.879471,1808.879471,1808.879471,1808.879471,1808.879471,
   ** Warning ** SimHVAC: Maximum iterations (20) exceeded for all HVAC loops, at ANNUAL, 03/16 10:45 - 10:49
   **   ~~~   ** The solution for one or more of the Air Loop HVAC systems did not appear to converge
   **   ~~~   ** Air System Named = CENTRAL SYSTEM did not converge for mass flow rate
   **   ~~~   ** Check values should be zero. Most Recent values listed first.
   **   ~~~   ** Demand-to-Supply interface mass flow rate check value iteration history trace: 6.477561E-002,6.477561E-002,6.477561E-002,6.477561E-002,6.477561E-002,6.477561E-002,6.477561E-002,6.477561E-002,6.477561E-002,6.477561E-002,
   **   ~~~   ** Supply-to-demand interface deck 1 mass flow rate check value iteration history trace: 6.477561E-002,6.477561E-002,6.477561E-002,6.477561E-002,6.477561E-002,6.477561E-002,6.477561E-002,6.477561E-002,6.477561E-002,6.477561E-002,
   **   ~~~   ** Air System Named = CENTRAL SYSTEM did not converge for energy
   **   ~~~   ** Check values should be zero. Most Recent values listed first.
   **   ~~~   ** Demand-to-Supply interface energy check value iteration history trace: 1277.117078,1277.117078,1277.117077,1277.117077,1277.117077,1277.117077,1277.117077,1277.117077,1277.117077,1277.117077,
   **   ~~~   ** Supply-to-demand interface deck 1 energy check value iteration history trace: 2324.501382,2324.501382,2324.501382,2324.501382,2324.501382,2324.501382,2324.501382,2324.501382,2324.501382,2324.501382,
   ** Warning ** SimHVAC: Maximum iterations (20) exceeded for all HVAC loops, at ANNUAL, 03/16 22:15 - 22:20
   **   ~~~   ** The solution for one or more of the Air Loop HVAC systems did not appear to converge
   **   ~~~   ** Air System Named = CENTRAL SYSTEM did not converge for mass flow rate
   **   ~~~   ** Check values should be zero. Most Recent values listed first.
   **   ~~~   ** Demand-to-Supply interface mass flow rate check value iteration history trace: 9.181877E-002,9.181877E-002,9.181877E-002,9.181877E-002,9.181877E-002,9.181877E-002,9.181877E-002,9.181877E-002,9.181877E-002,9.181877E-002,
   **   ~~~   ** Supply-to-demand interface deck 1 mass flow rate check value iteration history trace: 9.181877E-002,9.181877E-002,9.181877E-002,9.181877E-002,9.181877E-002,9.181877E-002,9.181877E-002,9.181877E-002,9.181877E-002,9.181877E-002,
   **   ~~~   ** Air System Named = CENTRAL SYSTEM did not converge for energy
   **   ~~~   ** Check values should be zero. Most Recent values listed first.
   **   ~~~   ** Demand-to-Supply interface energy check value iteration history trace: 1746.573576,1746.573576,1746.573576,1746.573576,1746.573576,1746.573576,1746.573576,1746.573575,1746.573575,1746.573575,
   **   ~~~   ** Supply-to-demand interface deck 1 energy check value iteration history trace: 2681.440860,2681.440860,2681.440860,2681.440860,2681.440859,2681.440859,2681.440859,2681.440859,2681.440859,2681.440858,
   ** Warning ** SimHVAC: Maximum iterations (20) exceeded for all HVAC loops, at ANNUAL, 03/17 20:30 - 20:45
   **   ~~~   ** The solution for one or more of the Air Loop HVAC systems did not appear to converge
   **   ~~~   ** Air System Named = CENTRAL SYSTEM did not converge for mass flow rate
   **   ~~~   ** Check values should be zero. Most Recent values listed first.
   **   ~~~   ** Demand-to-Supply interface mass flow rate check value iteration history trace: 8.151847E-002,8.151847E-002,8.151847E-002,8.151847E-002,8.151847E-002,8.151847E-002,8.151847E-002,8.151847E-002,8.151847E-002,8.151847E-002,
   **   ~~~   ** Supply-to-demand interface deck 1 mass flow rate check value iteration history trace: 8.151847E-002,8.151847E-002,8.151847E-002,8.151847E-002,8.151847E-002,8.151847E-002,8.151847E-002,8.151847E-002,8.151847E-002,8.151847E-002,
   **   ~~~   ** Air System Named = CENTRAL SYSTEM did not converge for energy
   **   ~~~   ** Check values should be zero. Most Recent values listed first.
   **   ~~~   ** Demand-to-Supply interface energy check value iteration history trace: 1579.947920,1579.947920,1579.947920,1579.947920,1579.947920,1579.947920,1579.947919,1579.947919,1579.947919,1579.947919,
   **   ~~~   ** Supply-to-demand interface deck 1 energy check value iteration history trace: 2567.302017,2567.302017,2567.302017,2567.302017,2567.302016,2567.302016,2567.302016,2567.302016,2567.302016,2567.302016,
   ** Warning ** SimHVAC: Maximum iterations (20) exceeded for all HVAC loops, at ANNUAL, 03/18 10:30 - 10:45
   **   ~~~   ** The solution for one or more of the Air Loop HVAC systems did not appear to converge
   **   ~~~   ** Air System Named = CENTRAL SYSTEM did not converge for mass flow rate
   **   ~~~   ** Check values should be zero. Most Recent values listed first.
   **   ~~~   ** Demand-to-Supply interface mass flow rate check value iteration history trace: 6.783570E-002,6.783570E-002,6.783570E-002,6.783570E-002,6.783570E-002,6.783570E-002,6.783570E-002,6.783570E-002,6.783570E-002,6.783570E-002,
   **   ~~~   ** Supply-to-demand interface deck 1 mass flow rate check value iteration history trace: 6.783570E-002,6.783570E-002,6.783570E-002,6.783570E-002,6.783570E-002,6.783570E-002,6.783570E-002,6.783570E-002,6.783570E-002,6.783570E-002,
   **   ~~~   ** Air System Named = CENTRAL SYSTEM did not converge for energy
   **   ~~~   ** Check values should be zero. Most Recent values listed first.
   **   ~~~   ** Demand-to-Supply interface energy check value iteration history trace: 1344.261274,1344.261274,1344.261274,1344.261274,1344.261274,1344.261274,1344.261274,1344.261274,1344.261274,1344.261274,
   **   ~~~   ** Supply-to-demand interface deck 1 energy check value iteration history trace: 2347.650630,2347.650630,2347.650630,2347.650630,2347.650630,2347.650630,2347.650630,2347.650629,2347.650629,2347.650629,
   ** Warning ** SimHVAC: Maximum iterations (20) exceeded for all HVAC loops, at ANNUAL, 03/21 09:34 - 09:38
   **   ~~~   ** The solution for one or more of the Air Loop HVAC systems did not appear to converge
   **   ~~~   ** Air System Named = CENTRAL SYSTEM did not converge for mass flow rate
   **   ~~~   ** Check values should be zero. Most Recent values listed first.
   **   ~~~   ** Demand-to-Supply interface mass flow rate check value iteration history trace: 6.509418E-002,6.509418E-002,6.509418E-002,6.509418E-002,6.509418E-002,6.509418E-002,6.509418E-002,6.509418E-002,6.509418E-002,6.509418E-002,
   **   ~~~   ** Supply-to-demand interface deck 1 mass flow rate check value iteration history trace: 6.509418E-002,6.509418E-002,6.509418E-002,6.509418E-002,6.509418E-002,6.509418E-002,6.509418E-002,6.509418E-002,6.509418E-002,6.509418E-002,
   **   ~~~   ** Air System Named = CENTRAL SYSTEM did not converge for energy
   **   ~~~   ** Check values should be zero. Most Recent values listed first.
   **   ~~~   ** Demand-to-Supply interface energy check value iteration history trace: 1289.930829,1289.930829,1289.930829,1289.930829,1289.930829,1289.930829,1289.930829,1289.930829,1289.930829,1289.930829,
   **   ~~~   ** Supply-to-demand interface deck 1 energy check value iteration history trace: 2329.183582,2329.183582,2329.183582,2329.183582,2329.183581,2329.183581,2329.183581,2329.183581,2329.183581,2329.183581,
   ** Warning ** SimHVAC: Maximum iterations (20) exceeded for all HVAC loops, at ANNUAL, 03/28 12:00 - 12:15
   **   ~~~   ** The solution for one or more of the Air Loop HVAC systems did not appear to converge
   **   ~~~   ** Air System Named = CENTRAL SYSTEM did not converge for mass flow rate
   **   ~~~   ** Check values should be zero. Most Recent values listed first.
   **   ~~~   ** Demand-to-Supply interface mass flow rate check value iteration history trace: 6.810918E-002,6.810918E-002,6.810918E-002,6.810918E-002,6.810918E-002,6.810918E-002,6.810918E-002,6.810918E-002,6.810918E-002,6.810918E-002,
   **   ~~~   ** Supply-to-demand interface deck 1 mass flow rate check value iteration history trace: 6.810918E-002,6.810918E-002,6.810918E-002,6.810918E-002,6.810918E-002,6.810918E-002,6.810918E-002,6.810918E-002,6.810918E-002,6.810918E-002,
   **   ~~~   ** Air System Named = CENTRAL SYSTEM did not converge for energy
   **   ~~~   ** Check values should be zero. Most Recent values listed first.
   **   ~~~   ** Demand-to-Supply interface energy check value iteration history trace: 1328.036138,1328.036138,1328.036138,1328.036138,1328.036138,1328.036138,1328.036138,1328.036138,1328.036138,1328.036138,
   **   ~~~   ** Supply-to-demand interface deck 1 energy check value iteration history trace: 2358.622343,2358.622343,2358.622343,2358.622343,2358.622343,2358.622343,2358.622343,2358.622343,2358.622343,2358.622343,
   ** Warning ** SimHVAC: Maximum iterations (20) exceeded for all HVAC loops, at ANNUAL, 03/28 21:38 - 21:45
   **   ~~~   ** The solution for one or more of the Air Loop HVAC systems did not appear to converge
   **   ~~~   ** Air System Named = CENTRAL SYSTEM did not converge for mass flow rate
   **   ~~~   ** Check values should be zero. Most Recent values listed first.
   **   ~~~   ** Demand-to-Supply interface mass flow rate check value iteration history trace: 8.148313E-002,8.148313E-002,8.148313E-002,8.148313E-002,8.148313E-002,8.148313E-002,8.148313E-002,8.148313E-002,8.148313E-002,8.148313E-002,
   **   ~~~   ** Supply-to-demand interface deck 1 mass flow rate check value iteration history trace: 8.148313E-002,8.148313E-002,8.148313E-002,8.148313E-002,8.148313E-002,8.148313E-002,8.148313E-002,8.148313E-002,8.148313E-002,8.148313E-002,
   **   ~~~   ** Air System Named = CENTRAL SYSTEM did not converge for energy
   **   ~~~   ** Check values should be zero. Most Recent values listed first.
   **   ~~~   ** Demand-to-Supply interface energy check value iteration history trace: 1606.406003,1606.406003,1606.406003,1606.406003,1606.406003,1606.406003,1606.406003,1606.406003,1606.406003,1606.406003,
   **   ~~~   ** Supply-to-demand interface deck 1 energy check value iteration history trace: 2506.477216,2506.477216,2506.477216,2506.477216,2506.477216,2506.477215,2506.477215,2506.477215,2506.477215,2506.477215,
   ** Warning ** SimHVAC: Maximum iterations (20) exceeded for all HVAC loops, at ANNUAL, 04/14 12:34 - 12:38
   **   ~~~   ** The solution for one or more of the Air Loop HVAC systems did not appear to converge
   **   ~~~   ** Air System Named = CENTRAL SYSTEM did not converge for mass flow rate
   **   ~~~   ** Check values should be zero. Most Recent values listed first.
   **   ~~~   ** Demand-to-Supply interface mass flow rate check value iteration history trace: 5.117451E-002,5.117451E-002,5.117451E-002,5.117451E-002,5.117451E-002,5.117451E-002,5.117451E-002,5.117451E-002,5.117451E-002,5.117451E-002,
   **   ~~~   ** Supply-to-demand interface deck 1 mass flow rate check value iteration history trace: 5.117451E-002,5.117451E-002,5.117451E-002,5.117451E-002,5.117451E-002,5.117451E-002,5.117451E-002,5.117451E-002,5.117451E-002,5.117451E-002,
   **   ~~~   ** Air System Named = CENTRAL SYSTEM did not converge for energy
   **   ~~~   ** Check values should be zero. Most Recent values listed first.
   **   ~~~   ** Demand-to-Supply interface energy check value iteration history trace: 1006.759227,1006.759227,1006.759227,1006.759227,1006.759227,1006.759227,1006.759227,1006.759227,1006.759227,1006.759227,
   **   ~~~   ** Supply-to-demand interface deck 1 energy check value iteration history trace: 1845.334782,1845.334782,1845.334782,1845.334782,1845.334782,1845.334782,1845.334782,1845.334782,1845.334782,1845.334781,
   ************* Simulation Error Summary *************
   ** Warning ** The following Report Variables were requested but not generated -- check.rdd file
   **   ~~~   ** Either the IDF did not contain these elements, the variable name is misspelled,
   **   ~~~   ** or the requested variable is an advanced output which requires Output : Diagnostics, DisplayAdvancedReportVariables;
   ************* Key=*, VarName=BASEBOARD TOTAL HEATING ENERGY, Frequency=
   ************* Key=*, VarName=WATER HEATER NATURALGAS ENERGY, Frequency=
   ************* Key=*, VarName=COOLING COIL TOTAL HEATING ENERGY, Frequency=
   ************* There are 34 unused schedules in input.
   ************* There are 388 unused week schedules in input.
   ************* There are 396 unused day schedules in input.
   ************* Use Output:Diagnostics,DisplayUnusedSchedules; to see them.
   *************
   ************* ===== Recurring Error Summary =====
   ************* The following recurring error messages occurred.
   *************
   *************  ** Warning ** "TOTAL HOT WATER LOAD" - Target water temperature should be less than or equal to the hot water temperature error continues...
   *************  **   ~~~   **   This error occurred 146915 total times;
   *************  **   ~~~   **   during Warmup 0 times;
   *************  **   ~~~   **   during Sizing 0 times.
   *************  **   ~~~   **   Max=15.559441  Min=1.658174E-005
   *************
   *************  ** Warning ** Temperature out of range [-100. to 200.] (PsyPsatFnTemp)
   *************  **   ~~~   **   This error occurred 7 total times;
   *************  **   ~~~   **   during Warmup 0 times;
   *************  **   ~~~   **   during Sizing 0 times.
   *************  **   ~~~   **   Max=-262.353638 C  Min=-1100.640381 C
   *************
   *************  ** Warning ** SimHVAC: Exceeding Maximum iterations for all HVAC loops, during ANNUAL continues
   *************  **   ~~~   **   This error occurred 21 total times;
   *************  **   ~~~   **   during Warmup 0 times;
   *************  **   ~~~   **   during Sizing 0 times.
   *************
   *************
   ************* ===== Final Error Summary =====
   ************* The following error categories occurred.  Consider correcting or noting.
   ************* Nominally Unused Constructions
   ************* ..The nominally unused constructions warning is provided to alert you to potential conditions that can cause
   ************* ..extra time during simulation. Each construction is calculated by the algorithm indicated in the HeatBalanceAlgorithm
   ************* ..object. You may remove the constructions indicated (when you use the DisplayExtraWarnings option).
   *************
   ************* EnergyPlus Warmup Error Summary. During Warmup: 1 Warning; 0 Severe Errors.
   ************* EnergyPlus Sizing Error Summary. During Sizing: 4 Warning; 0 Severe Errors.
   ************* EnergyPlus Completed Successfully-- 146975 Warning; 0 Severe Errors; Elapsed Time=00hr 01min 33.58sec
