Program Version,EnergyPlus, Version 22.2.0-c249759bad, YMD=2023.09.01 17:24,
   ************* Beginning Zone Sizing Calculations
   ** Warning ** ProcessScheduleInput: Schedule:Constant="ALWAYS ON DISCRETE", Schedule Type Limits Name="ONOFF" not found -- will not be validated
   ** Warning ** Foundation:Kiva="KIVA FOUNDATION", no Interior Horizontal Insulation Material Name defined
   **   ~~~   ** Interior Horizontal Insulation Depth will not be used.
   ** Warning ** CheckUsedConstructions: There are 15 nominally unused constructions in input.
   **   ~~~   ** Each Unused construction is shown.
   ************* Construction=INTERIOR FLOOR
   ************* Construction=INTERIOR WINDOW
   ************* Construction=EXTERIOR DOOR
   ************* Construction=INTERIOR DOOR
   ************* Construction=GABLE CONSTRUCTION
   ************* Construction=CRAWL_FLOOR
   ************* Construction=INSULATED PIPE
   ************* Construction=PLAIN PIPE
   ************* Construction=TDD PIPE
   ************* Construction=TDD DOME
   ************* Construction=TDD DIFFUSER
   ************* Construction=CRAWL WALL
   ************* Construction=CEILING-FLOOR-LAYER
   ************* Construction=SLAB CONSTRUCTION W FULL R10 INSULATION
   ************* Construction=SLAB CONSTRUCTION W FULL R5 INSULATION
   ** Warning ** GetDXCoils: Coil:Heating:DX:SingleSpeed="DX_HEATING_COIL" curve values
   **   ~~~   ** ... Defrost Energy Input Ratio Function of Temperature Curve Name = DEFROSTEIR output is not equal to 1.0 (+ or - 10%) at rated conditions.
   **   ~~~   ** ... Curve output at rated conditions = 0.152
   ************* Beginning System Sizing Calculations
   ************* Beginning Plant Sizing Calculations
   ** Warning ** Coil:WaterHeating:AirToWaterHeatPump:Wrapped "HEAT PUMP WATER HEATER EVAPORATOR": Rated air volume flow rate per watt of rated total water heating capacity is out of range
   **   ~~~   ** Min Rated Vol Flow Per Watt=[4.027E-005], Rated Vol Flow Per Watt=[1.510E-004], Max Rated Vol Flow Per Watt=[8.056E-005]. See Input-Output Reference Manual for valid range.
   ************* SizeFan: : Potential issue with equipment sizing for Fan:OnOff HEAT PUMP WATER HEATER FAN
   **   ~~~   ** User-Specified Maximum Flow Rate [m3/s] = 0.22653
   **   ~~~   ** differs from Design Size Maximum Flow Rate [m3/s] = 7.55250E-002
   **   ~~~   ** This may, or may not, indicate mismatched component sizes.
   **   ~~~   ** Verify that the value entered is intended and is consistent with other components.
   ** Warning ** Water heater = WATER HEATER TANK:  Recovery Efficiency and Energy Factor could not be calculated during the test for standard ratings
   **   ~~~   ** Setpoint was never recovered and/or heater never turned on
   ** Warning ** Check input. Pump nominal power or motor efficiency is set to 0, for pump=MAINS PRESSURE
   ** Warning ** Output:Meter: invalid Key Name="ELECTRIC_RANGE:INTERIOREQUIPMENT:ELECTRICITY" - not found.
   ** Warning ** Output:Meter: invalid Key Name="ELECTRIC_DRYER:INTERIOREQUIPMENT:ELECTRICITY" - not found.
   ** Warning ** Output:Meter: invalid Key Name="HEATRECOVERY:ELECTRICITY" - not found.
   ** Warning ** Output:Meter: invalid Key Name="HEATING:NATURALGAS" - not found.
   ** Warning ** Output:Meter: invalid Key Name="WATERSYSTEMS:NATURALGAS" - not found.
   ** Warning ** Output:Meter: invalid Key Name="PROPANE:FACILITY" - not found.
   ** Warning ** Output:Meter: invalid Key Name="HEATING:PROPANE" - not found.
   ************* Testing Individual Branch Integrity
   ************* All Branches passed integrity testing
   ************* Testing Individual Supply Air Path Integrity
   ************* All Supply Air Paths passed integrity testing
   ************* Testing Individual Return Air Path Integrity
   ************* All Return Air Paths passed integrity testing
   ************* No node connection errors were found.
   ************* Beginning Simulation
   ** Warning ** AirflowNetwork::Solver::validate_distribution: Heat pump water heater is simulated along with an AirflowNetwork but is not included in the AirflowNetwork.
   ** Warning ** CalcEquipmentFlowRates: "TOTAL HOT WATER LOAD" - Target water temperature is greater than the hot water temperature by (2.42 C)
   **   ~~~   **  Environment=EXTREME_WINTER, at Simulation time=12/22 06:00 - 06:15
   **   ~~~   ** ...target water temperature     = 53.33 C
   **   ~~~   ** ...hot water temperature        = 50.92 C
   **   ~~~   ** ...Target water temperature should be less than or equal to the hot water temperature. Verify temperature setpoints and schedules.
   ** Warning ** SimHVAC: Maximum iterations (20) exceeded for all HVAC loops, at ANNUAL, 01/04 15:23 - 15:30
   **   ~~~   ** The solution for one or more of the Air Loop HVAC systems did not appear to converge
   **   ~~~   ** Air System Named = CENTRAL SYSTEM did not converge for mass flow rate
   **   ~~~   ** Check values should be zero. Most Recent values listed first.
   **   ~~~   ** Demand-to-Supply interface mass flow rate check value iteration history trace: 9.006938E-002,9.006938E-002,9.006938E-002,9.006938E-002,9.006938E-002,9.006938E-002,9.006938E-002,9.006938E-002,9.006938E-002,9.006938E-002,
   **   ~~~   ** Supply-to-demand interface deck 1 mass flow rate check value iteration history trace: 9.006938E-002,9.006938E-002,9.006938E-002,9.006938E-002,9.006938E-002,9.006938E-002,9.006938E-002,9.006938E-002,9.006938E-002,9.006938E-002,
   **   ~~~   ** Air System Named = CENTRAL SYSTEM did not converge for energy
   **   ~~~   ** Check values should be zero. Most Recent values listed first.
   **   ~~~   ** Demand-to-Supply interface energy check value iteration history trace: 1784.407997,1784.407996,1784.407996,1784.407996,1784.407996,1784.407996,1784.407996,1784.407996,1784.407995,1784.407995,
   **   ~~~   ** Supply-to-demand interface deck 1 energy check value iteration history trace: 2671.157080,2671.157080,2671.157080,2671.157079,2671.157079,2671.157079,2671.157079,2671.157079,2671.157078,2671.157078,
   ** Warning ** SimHVAC: Maximum iterations (20) exceeded for all HVAC loops, at ANNUAL, 01/14 10:30 - 10:34
   **   ~~~   ** The solution for one or more of the Air Loop HVAC systems did not appear to converge
   **   ~~~   ** Air System Named = CENTRAL SYSTEM did not converge for mass flow rate
   **   ~~~   ** Check values should be zero. Most Recent values listed first.
   **   ~~~   ** Demand-to-Supply interface mass flow rate check value iteration history trace: 6.982846E-002,6.982846E-002,6.982846E-002,6.982846E-002,6.982846E-002,6.982846E-002,6.982846E-002,6.982846E-002,6.982846E-002,6.982846E-002,
   **   ~~~   ** Supply-to-demand interface deck 1 mass flow rate check value iteration history trace: 6.982846E-002,6.982846E-002,6.982846E-002,6.982846E-002,6.982846E-002,6.982846E-002,6.982846E-002,6.982846E-002,6.982846E-002,6.982846E-002,
   **   ~~~   ** Air System Named = CENTRAL SYSTEM did not converge for energy
   **   ~~~   ** Check values should be zero. Most Recent values listed first.
   **   ~~~   ** Demand-to-Supply interface energy check value iteration history trace: 1383.727573,1383.727573,1383.727573,1383.727572,1383.727572,1383.727572,1383.727572,1383.727572,1383.727572,1383.727572,
   **   ~~~   ** Supply-to-demand interface deck 1 energy check value iteration history trace: 2402.753594,2402.753594,2402.753594,2402.753594,2402.753593,2402.753593,2402.753593,2402.753593,2402.753593,2402.753593,
   ** Warning ** SimHVAC: Maximum iterations (20) exceeded for all HVAC loops, at ANNUAL, 01/27 20:00 - 20:15
   **   ~~~   ** The solution for one or more of the Air Loop HVAC systems did not appear to converge
   **   ~~~   ** Air System Named = CENTRAL SYSTEM did not converge for mass flow rate
   **   ~~~   ** Check values should be zero. Most Recent values listed first.
   **   ~~~   ** Demand-to-Supply interface mass flow rate check value iteration history trace: 6.802048E-002,6.802048E-002,6.802048E-002,6.802048E-002,6.802048E-002,6.802048E-002,6.802048E-002,6.802048E-002,6.802048E-002,6.802048E-002,
   **   ~~~   ** Supply-to-demand interface deck 1 mass flow rate check value iteration history trace: 6.802048E-002,6.802048E-002,6.802048E-002,6.802048E-002,6.802048E-002,6.802048E-002,6.802048E-002,6.802048E-002,6.802048E-002,6.802048E-002,
   **   ~~~   ** Air System Named = CENTRAL SYSTEM did not converge for energy
   **   ~~~   ** Check values should be zero. Most Recent values listed first.
   **   ~~~   ** Demand-to-Supply interface energy check value iteration history trace: 1347.703577,1347.703577,1347.703577,1347.703577,1347.703577,1347.703577,1347.703577,1347.703577,1347.703577,1347.703577,
   **   ~~~   ** Supply-to-demand interface deck 1 energy check value iteration history trace: 2290.231706,2290.231706,2290.231706,2290.231706,2290.231706,2290.231706,2290.231705,2290.231705,2290.231705,2290.231705,
   ** Warning ** SimHVAC: Maximum iterations (20) exceeded for all HVAC loops, at ANNUAL, 01/27 20:30 - 20:45
   **   ~~~   ** The solution for one or more of the Air Loop HVAC systems did not appear to converge
   **   ~~~   ** Air System Named = CENTRAL SYSTEM did not converge for mass flow rate
   **   ~~~   ** Check values should be zero. Most Recent values listed first.
   **   ~~~   ** Demand-to-Supply interface mass flow rate check value iteration history trace: 7.014222E-002,7.014222E-002,7.014222E-002,7.014222E-002,7.014222E-002,7.014222E-002,7.014222E-002,7.014222E-002,7.014222E-002,7.014222E-002,
   **   ~~~   ** Supply-to-demand interface deck 1 mass flow rate check value iteration history trace: 7.014222E-002,7.014222E-002,7.014222E-002,7.014222E-002,7.014222E-002,7.014222E-002,7.014222E-002,7.014222E-002,7.014222E-002,7.014222E-002,
   **   ~~~   ** Air System Named = CENTRAL SYSTEM did not converge for energy
   **   ~~~   ** Check values should be zero. Most Recent values listed first.
   **   ~~~   ** Demand-to-Supply interface energy check value iteration history trace: 1387.708027,1387.708027,1387.708027,1387.708027,1387.708027,1387.708027,1387.708027,1387.708027,1387.708027,1387.708027,
   **   ~~~   ** Supply-to-demand interface deck 1 energy check value iteration history trace: 2346.521066,2346.521066,2346.521066,2346.521066,2346.521066,2346.521066,2346.521065,2346.521065,2346.521065,2346.521065,
   ** Warning ** SimHVAC: Maximum iterations (20) exceeded for all HVAC loops, at ANNUAL, 02/12 12:00 - 12:15
   **   ~~~   ** The solution for one or more of the Air Loop HVAC systems did not appear to converge
   **   ~~~   ** Air System Named = CENTRAL SYSTEM did not converge for mass flow rate
   **   ~~~   ** Check values should be zero. Most Recent values listed first.
   **   ~~~   ** Demand-to-Supply interface mass flow rate check value iteration history trace: 6.467760E-002,6.467760E-002,6.467760E-002,6.467760E-002,6.467760E-002,6.467760E-002,6.467760E-002,6.467760E-002,6.467760E-002,6.467760E-002,
   **   ~~~   ** Supply-to-demand interface deck 1 mass flow rate check value iteration history trace: 6.467760E-002,6.467760E-002,6.467760E-002,6.467760E-002,6.467760E-002,6.467760E-002,6.467760E-002,6.467760E-002,6.467760E-002,6.467760E-002,
   **   ~~~   ** Air System Named = CENTRAL SYSTEM did not converge for energy
   **   ~~~   ** Check values should be zero. Most Recent values listed first.
   **   ~~~   ** Demand-to-Supply interface energy check value iteration history trace: 1281.706876,1281.706876,1281.706876,1281.706876,1281.706876,1281.706876,1281.706876,1281.706876,1281.706876,1281.706876,
   **   ~~~   ** Supply-to-demand interface deck 1 energy check value iteration history trace: 2219.301831,2219.301831,2219.301831,2219.301831,2219.301831,2219.301831,2219.301830,2219.301830,2219.301830,2219.301830,
   ** Warning ** SimHVAC: Maximum iterations (20) exceeded for all HVAC loops, at ANNUAL, 02/16 19:38 - 19:45
   **   ~~~   ** The solution for one or more of the Air Loop HVAC systems did not appear to converge
   **   ~~~   ** Air System Named = CENTRAL SYSTEM did not converge for mass flow rate
   **   ~~~   ** Check values should be zero. Most Recent values listed first.
   **   ~~~   ** Demand-to-Supply interface mass flow rate check value iteration history trace: 8.766112E-002,8.766112E-002,8.766112E-002,8.766112E-002,8.766112E-002,8.766112E-002,8.766112E-002,8.766112E-002,8.766112E-002,8.766112E-002,
   **   ~~~   ** Supply-to-demand interface deck 1 mass flow rate check value iteration history trace: 8.766112E-002,8.766112E-002,8.766112E-002,8.766112E-002,8.766112E-002,8.766112E-002,8.766112E-002,8.766112E-002,8.766112E-002,8.766112E-002,
   **   ~~~   ** Air System Named = CENTRAL SYSTEM did not converge for energy
   **   ~~~   ** Check values should be zero. Most Recent values listed first.
   **   ~~~   ** Demand-to-Supply interface energy check value iteration history trace: 1735.812992,1735.812992,1735.812992,1735.812992,1735.812992,1735.812992,1735.812992,1735.812992,1735.812991,1735.812991,
   **   ~~~   ** Supply-to-demand interface deck 1 energy check value iteration history trace: 2688.970522,2688.970522,2688.970522,2688.970522,2688.970522,2688.970521,2688.970521,2688.970521,2688.970521,2688.970521,
   ** Warning ** SimHVAC: Maximum iterations (20) exceeded for all HVAC loops, at ANNUAL, 03/13 12:45 - 13:00
   **   ~~~   ** The solution for one or more of the Air Loop HVAC systems did not appear to converge
   **   ~~~   ** Air System Named = CENTRAL SYSTEM did not converge for mass flow rate
   **   ~~~   ** Check values should be zero. Most Recent values listed first.
   **   ~~~   ** Demand-to-Supply interface mass flow rate check value iteration history trace: 5.706015E-002,5.706015E-002,5.706015E-002,5.706015E-002,5.706015E-002,5.706015E-002,5.706015E-002,5.706015E-002,5.706015E-002,5.706015E-002,
   **   ~~~   ** Supply-to-demand interface deck 1 mass flow rate check value iteration history trace: 5.706015E-002,5.706015E-002,5.706015E-002,5.706015E-002,5.706015E-002,5.706015E-002,5.706015E-002,5.706015E-002,5.706015E-002,5.706015E-002,
   **   ~~~   ** Air System Named = CENTRAL SYSTEM did not converge for energy
   **   ~~~   ** Check values should be zero. Most Recent values listed first.
   **   ~~~   ** Demand-to-Supply interface energy check value iteration history trace: 1130.790883,1130.790883,1130.790883,1130.790883,1130.790883,1130.790883,1130.790882,1130.790882,1130.790882,1130.790882,
   **   ~~~   ** Supply-to-demand interface deck 1 energy check value iteration history trace: 1928.536883,1928.536883,1928.536883,1928.536883,1928.536883,1928.536883,1928.536883,1928.536883,1928.536883,1928.536883,
   ** Warning ** SimHVAC: Maximum iterations (20) exceeded for all HVAC loops, at ANNUAL, 03/24 10:45 - 11:00
   **   ~~~   ** The solution for one or more of the Air Loop HVAC systems did not appear to converge
   **   ~~~   ** Air System Named = CENTRAL SYSTEM did not converge for mass flow rate
   **   ~~~   ** Check values should be zero. Most Recent values listed first.
   **   ~~~   ** Demand-to-Supply interface mass flow rate check value iteration history trace: 6.147918E-002,6.147918E-002,6.147918E-002,6.147918E-002,6.147918E-002,6.147918E-002,6.147918E-002,6.147918E-002,6.147918E-002,6.147918E-002,
   **   ~~~   ** Supply-to-demand interface deck 1 mass flow rate check value iteration history trace: 6.147918E-002,6.147918E-002,6.147918E-002,6.147918E-002,6.147918E-002,6.147918E-002,6.147918E-002,6.147918E-002,6.147918E-002,6.147918E-002,
   **   ~~~   ** Air System Named = CENTRAL SYSTEM did not converge for energy
   **   ~~~   ** Check values should be zero. Most Recent values listed first.
   **   ~~~   ** Demand-to-Supply interface energy check value iteration history trace: 1214.565725,1214.565725,1214.565725,1214.565725,1214.565725,1214.565725,1214.565725,1214.565725,1214.565725,1214.565725,
   **   ~~~   ** Supply-to-demand interface deck 1 energy check value iteration history trace: 2117.334094,2117.334094,2117.334094,2117.334094,2117.334094,2117.334094,2117.334094,2117.334094,2117.334093,2117.334093,
   ** Warning ** SimHVAC: Maximum iterations (20) exceeded for all HVAC loops, at ANNUAL, 04/08 08:45 - 09:00
   **   ~~~   ** The solution for one or more of the Air Loop HVAC systems did not appear to converge
   **   ~~~   ** Air System Named = CENTRAL SYSTEM did not converge for mass flow rate
   **   ~~~   ** Check values should be zero. Most Recent values listed first.
   **   ~~~   ** Demand-to-Supply interface mass flow rate check value iteration history trace: 5.720691E-002,5.720691E-002,5.720691E-002,5.720691E-002,5.720691E-002,5.720691E-002,5.720691E-002,5.720691E-002,5.720691E-002,5.720691E-002,
   **   ~~~   ** Supply-to-demand interface deck 1 mass flow rate check value iteration history trace: 5.720691E-002,5.720691E-002,5.720691E-002,5.720691E-002,5.720691E-002,5.720691E-002,5.720691E-002,5.720691E-002,5.720691E-002,5.720691E-002,
   **   ~~~   ** Air System Named = CENTRAL SYSTEM did not converge for energy
   **   ~~~   ** Check values should be zero. Most Recent values listed first.
   **   ~~~   ** Demand-to-Supply interface energy check value iteration history trace: 1132.399208,1132.399208,1132.399208,1132.399208,1132.399208,1132.399208,1132.399208,1132.399208,1132.399208,1132.399208,
   **   ~~~   ** Supply-to-demand interface deck 1 energy check value iteration history trace: 2025.655099,2025.655099,2025.655099,2025.655099,2025.655099,2025.655099,2025.655099,2025.655099,2025.655099,2025.655099,
   ** Warning ** SimHVAC: Maximum iterations (20) exceeded for all HVAC loops, at ANNUAL, 05/02 08:03 - 08:06
   **   ~~~   ** The solution for one or more of the Air Loop HVAC systems did not appear to converge
   **   ~~~   ** Air System Named = CENTRAL SYSTEM did not converge for mass flow rate
   **   ~~~   ** Check values should be zero. Most Recent values listed first.
   **   ~~~   ** Demand-to-Supply interface mass flow rate check value iteration history trace: 6.321631E-002,6.321631E-002,6.321631E-002,6.321631E-002,6.321631E-002,6.321631E-002,6.321631E-002,6.321631E-002,6.321631E-002,6.321631E-002,
   **   ~~~   ** Supply-to-demand interface deck 1 mass flow rate check value iteration history trace: 6.321631E-002,6.321631E-002,6.321631E-002,6.321631E-002,6.321631E-002,6.321631E-002,6.321631E-002,6.321631E-002,6.321631E-002,6.321631E-002,
   **   ~~~   ** Air System Named = CENTRAL SYSTEM did not converge for energy
   **   ~~~   ** Check values should be zero. Most Recent values listed first.
   **   ~~~   ** Demand-to-Supply interface energy check value iteration history trace: 1248.917261,1248.917261,1248.917261,1248.917261,1248.917261,1248.917261,1248.917261,1248.917261,1248.917261,1248.917261,
   **   ~~~   ** Supply-to-demand interface deck 1 energy check value iteration history trace: 2257.746629,2257.746629,2257.746629,2257.746629,2257.746629,2257.746628,2257.746628,2257.746628,2257.746628,2257.746628,
   ** Warning ** SimHVAC: Maximum iterations (20) exceeded for all HVAC loops, at ANNUAL, 11/10 04:45 - 05:00
   **   ~~~   ** The solution for one or more of the Air Loop HVAC systems did not appear to converge
   **   ~~~   ** Air System Named = CENTRAL SYSTEM did not converge for mass flow rate
   **   ~~~   ** Check values should be zero. Most Recent values listed first.
   **   ~~~   ** Demand-to-Supply interface mass flow rate check value iteration history trace: 2.185407E-002,2.185407E-002,2.185407E-002,2.185407E-002,2.185407E-002,2.185407E-002,2.185407E-002,2.185407E-002,2.185407E-002,2.185407E-002,
   **   ~~~   ** Supply-to-demand interface deck 1 mass flow rate check value iteration history trace: 2.185407E-002,2.185407E-002,2.185407E-002,2.185407E-002,2.185407E-002,2.185407E-002,2.185407E-002,2.185407E-002,2.185407E-002,2.185407E-002,
   **   ~~~   ** Air System Named = CENTRAL SYSTEM did not converge for energy
   **   ~~~   ** Check values should be zero. Most Recent values listed first.
   **   ~~~   ** Demand-to-Supply interface energy check value iteration history trace: 408.338982,408.338982,408.338982,408.338982,408.338982,408.338982,408.338982,408.338982,408.338982,408.338982,
   **   ~~~   ** Supply-to-demand interface deck 1 energy check value iteration history trace: 736.546897,736.546897,736.546897,736.546897,736.546897,736.546897,736.546897,736.546897,736.546897,736.546897,
   ** Warning ** SimHVAC: Maximum iterations (20) exceeded for all HVAC loops, at ANNUAL, 11/17 11:38 - 11:41
   **   ~~~   ** The solution for one or more of the Air Loop HVAC systems did not appear to converge
   **   ~~~   ** Air System Named = CENTRAL SYSTEM did not converge for mass flow rate
   **   ~~~   ** Check values should be zero. Most Recent values listed first.
   **   ~~~   ** Demand-to-Supply interface mass flow rate check value iteration history trace: 5.960232E-002,5.960232E-002,5.960232E-002,5.960232E-002,5.960232E-002,5.960232E-002,5.960232E-002,5.960232E-002,5.960232E-002,5.960232E-002,
   **   ~~~   ** Supply-to-demand interface deck 1 mass flow rate check value iteration history trace: 5.960232E-002,5.960232E-002,5.960232E-002,5.960232E-002,5.960232E-002,5.960232E-002,5.960232E-002,5.960232E-002,5.960232E-002,5.960232E-002,
   **   ~~~   ** Air System Named = CENTRAL SYSTEM did not converge for energy
   **   ~~~   ** Check values should be zero. Most Recent values listed first.
   **   ~~~   ** Demand-to-Supply interface energy check value iteration history trace: 1171.029339,1171.029339,1171.029339,1171.029339,1171.029339,1171.029339,1171.029339,1171.029339,1171.029339,1171.029339,
   **   ~~~   ** Supply-to-demand interface deck 1 energy check value iteration history trace: 2085.582352,2085.582352,2085.582352,2085.582352,2085.582352,2085.582352,2085.582352,2085.582352,2085.582352,2085.582352,
   ** Warning ** SimHVAC: Maximum iterations (20) exceeded for all HVAC loops, at ANNUAL, 12/05 19:30 - 19:38
   **   ~~~   ** The solution for one or more of the Air Loop HVAC systems did not appear to converge
   **   ~~~   ** Air System Named = CENTRAL SYSTEM did not converge for mass flow rate
   **   ~~~   ** Check values should be zero. Most Recent values listed first.
   **   ~~~   ** Demand-to-Supply interface mass flow rate check value iteration history trace: 9.352908E-002,9.352908E-002,9.352908E-002,9.352908E-002,9.352908E-002,9.352908E-002,9.352908E-002,9.352908E-002,9.352908E-002,9.352908E-002,
   **   ~~~   ** Supply-to-demand interface deck 1 mass flow rate check value iteration history trace: 9.352908E-002,9.352908E-002,9.352908E-002,9.352908E-002,9.352908E-002,9.352908E-002,9.352908E-002,9.352908E-002,9.352908E-002,9.352908E-002,
   **   ~~~   ** Air System Named = CENTRAL SYSTEM did not converge for energy
   **   ~~~   ** Check values should be zero. Most Recent values listed first.
   **   ~~~   ** Demand-to-Supply interface energy check value iteration history trace: 1854.865828,1854.865828,1854.865828,1854.865828,1854.865828,1854.865828,1854.865827,1854.865827,1854.865827,1854.865827,
   **   ~~~   ** Supply-to-demand interface deck 1 energy check value iteration history trace: 2918.319373,2918.319373,2918.319372,2918.319372,2918.319372,2918.319372,2918.319372,2918.319372,2918.319371,2918.319371,
   ** Warning ** WetBulb not converged after 101 iterations(PsyTwbFnTdbWPb)
   **   ~~~   **  Routine=Unknown, Environment=ANNUAL, at Simulation time=12/14 02:30 - 02:45
   **   ~~~   **  Input Temperature = 2.80
   **   ~~~   **  Input Humidity Ratio= 2.747995E-003
   **   ~~~   **  Input Pressure = 98543.50
   **   ~~~   **  Resultant Temperature= 3.00E-002
   ************* Simulation Error Summary *************
   ** Warning ** The following Report Variables were requested but not generated -- check.rdd file
   **   ~~~   ** Either the IDF did not contain these elements, the variable name is misspelled,
   **   ~~~   ** or the requested variable is an advanced output which requires Output : Diagnostics, DisplayAdvancedReportVariables;
   ************* Key=*, VarName=BASEBOARD TOTAL HEATING ENERGY, Frequency=
   ************* Key=*, VarName=WATER HEATER NATURALGAS ENERGY, Frequency=
   ************* Key=*, VarName=COOLING COIL TOTAL HEATING ENERGY, Frequency=
   ************* There are 34 unused schedules in input.
   ************* There are 388 unused week schedules in input.
   ************* There are 396 unused day schedules in input.
   ************* Use Output:Diagnostics,DisplayUnusedSchedules; to see them.
   *************
   ************* ===== Recurring Error Summary =====
   ************* The following recurring error messages occurred.
   *************
   *************  ** Warning ** "TOTAL HOT WATER LOAD" - Target water temperature should be less than or equal to the hot water temperature error continues...
   *************  **   ~~~   **   This error occurred 127983 total times;
   *************  **   ~~~   **   during Warmup 0 times;
   *************  **   ~~~   **   during Sizing 0 times.
   *************  **   ~~~   **   Max=10.248657  Min=1.318943E-003
   *************
   *************  ** Warning ** WetBulb not converged after max iterations(PsyTwbFnTdbWPb)
   *************  **   ~~~   **   This error occurred 1 total times;
   *************  **   ~~~   **   during Warmup 0 times;
   *************  **   ~~~   **   during Sizing 0 times.
   *************
   *************
   ************* ===== Final Error Summary =====
   ************* The following error categories occurred.  Consider correcting or noting.
   ************* Nominally Unused Constructions
   ************* ..The nominally unused constructions warning is provided to alert you to potential conditions that can cause
   ************* ..extra time during simulation. Each construction is calculated by the algorithm indicated in the HeatBalanceAlgorithm
   ************* ..object. You may remove the constructions indicated (when you use the DisplayExtraWarnings option).
   *************
   ************* EnergyPlus Warmup Error Summary. During Warmup: 1 Warning; 0 Severe Errors.
   ************* EnergyPlus Sizing Error Summary. During Sizing: 4 Warning; 0 Severe Errors.
   ************* EnergyPlus Completed Successfully-- 128014 Warning; 0 Severe Errors; Elapsed Time=00hr 05min 39.61sec
