Program Version,EnergyPlus, Version 22.2.0-c249759bad, YMD=2023.09.01 15:14,
   ************* Beginning Zone Sizing Calculations
   ** Warning ** ProcessScheduleInput: Schedule:Constant="ALWAYS ON DISCRETE", Schedule Type Limits Name="ONOFF" not found -- will not be validated
   ** Warning ** Foundation:Kiva="KIVA FOUNDATION", no Interior Horizontal Insulation Material Name defined
   **   ~~~   ** Interior Horizontal Insulation Depth will not be used.
   ** Warning ** CheckUsedConstructions: There are 15 nominally unused constructions in input.
   **   ~~~   ** Each Unused construction is shown.
   ************* Construction=INTERIOR FLOOR
   ************* Construction=INTERIOR WINDOW
   ************* Construction=EXTERIOR DOOR
   ************* Construction=INTERIOR DOOR
   ************* Construction=GABLE CONSTRUCTION
   ************* Construction=CRAWL_FLOOR
   ************* Construction=INSULATED PIPE
   ************* Construction=PLAIN PIPE
   ************* Construction=TDD PIPE
   ************* Construction=TDD DOME
   ************* Construction=TDD DIFFUSER
   ************* Construction=CRAWL WALL
   ************* Construction=CEILING-FLOOR-LAYER
   ************* Construction=SLAB CONSTRUCTION W FULL R10 INSULATION
   ************* Construction=SLAB CONSTRUCTION W FULL R5 INSULATION
   ** Warning ** GetDXCoils: Coil:Heating:DX:SingleSpeed="DX_HEATING_COIL" curve values
   **   ~~~   ** ... Defrost Energy Input Ratio Function of Temperature Curve Name = DEFROSTEIR output is not equal to 1.0 (+ or - 10%) at rated conditions.
   **   ~~~   ** ... Curve output at rated conditions = 0.152
   ************* Beginning System Sizing Calculations
   ************* Beginning Plant Sizing Calculations
   ** Warning ** Coil:WaterHeating:AirToWaterHeatPump:Wrapped "HEAT PUMP WATER HEATER EVAPORATOR": Rated air volume flow rate per watt of rated total water heating capacity is out of range
   **   ~~~   ** Min Rated Vol Flow Per Watt=[4.027E-005], Rated Vol Flow Per Watt=[1.386E-004], Max Rated Vol Flow Per Watt=[8.056E-005]. See Input-Output Reference Manual for valid range.
   ** Warning ** Water heater = WATER HEATER TANK:  Recovery Efficiency and Energy Factor could not be calculated during the test for standard ratings
   **   ~~~   ** Setpoint was never recovered and/or heater never turned on
   ** Warning ** Check input. Pump nominal power or motor efficiency is set to 0, for pump=MAINS PRESSURE
   ** Warning ** Output:Meter: invalid Key Name="ELECTRIC_RANGE:INTERIOREQUIPMENT:ELECTRICITY" - not found.
   ** Warning ** Output:Meter: invalid Key Name="ELECTRIC_DRYER:INTERIOREQUIPMENT:ELECTRICITY" - not found.
   ** Warning ** Output:Meter: invalid Key Name="HEATRECOVERY:ELECTRICITY" - not found.
   ** Warning ** Output:Meter: invalid Key Name="HEATING:NATURALGAS" - not found.
   ** Warning ** Output:Meter: invalid Key Name="WATERSYSTEMS:NATURALGAS" - not found.
   ** Warning ** Output:Meter: invalid Key Name="PROPANE:FACILITY" - not found.
   ** Warning ** Output:Meter: invalid Key Name="HEATING:PROPANE" - not found.
   ************* Testing Individual Branch Integrity
   ************* All Branches passed integrity testing
   ************* Testing Individual Supply Air Path Integrity
   ************* All Supply Air Paths passed integrity testing
   ************* Testing Individual Return Air Path Integrity
   ************* All Return Air Paths passed integrity testing
   ************* No node connection errors were found.
   ************* Beginning Simulation
   ** Warning ** AirflowNetwork::Solver::validate_distribution: Heat pump water heater is simulated along with an AirflowNetwork but is not included in the AirflowNetwork.
   ** Warning ** CalcEquipmentFlowRates: "TOTAL HOT WATER LOAD" - Target water temperature is greater than the hot water temperature by (1.68 C)
   **   ~~~   **  Environment=EXTREME_WINTER, at Simulation time=01/20 06:00 - 06:15
   **   ~~~   ** ...target water temperature     = 53.33 C
   **   ~~~   ** ...hot water temperature        = 51.66 C
   **   ~~~   ** ...Target water temperature should be less than or equal to the hot water temperature. Verify temperature setpoints and schedules.
   ** Warning ** SimHVAC: Maximum iterations (20) exceeded for all HVAC loops, at EXTREME_WINTER, 01/23 17:00 - 17:08
   **   ~~~   ** The solution for one or more of the Air Loop HVAC systems did not appear to converge
   **   ~~~   ** Air System Named = CENTRAL SYSTEM did not converge for mass flow rate
   **   ~~~   ** Check values should be zero. Most Recent values listed first.
   **   ~~~   ** Demand-to-Supply interface mass flow rate check value iteration history trace: 9.271219E-002,9.271219E-002,9.271219E-002,9.271219E-002,9.271219E-002,9.271219E-002,9.271219E-002,9.271219E-002,9.271219E-002,9.271219E-002,
   **   ~~~   ** Supply-to-demand interface deck 1 mass flow rate check value iteration history trace: 9.271219E-002,9.271219E-002,9.271219E-002,9.271219E-002,9.271219E-002,9.271219E-002,9.271219E-002,9.271219E-002,9.271219E-002,9.271219E-002,
   **   ~~~   ** Air System Named = CENTRAL SYSTEM did not converge for energy
   **   ~~~   ** Check values should be zero. Most Recent values listed first.
   **   ~~~   ** Demand-to-Supply interface energy check value iteration history trace: 1836.359916,1836.359916,1836.359916,1836.359916,1836.359916,1836.359916,1836.359916,1836.359916,1836.359915,1836.359915,
   **   ~~~   ** Supply-to-demand interface deck 1 energy check value iteration history trace: 2881.381509,2881.381509,2881.381509,2881.381508,2881.381508,2881.381508,2881.381508,2881.381508,2881.381508,2881.381507,
   ** Warning ** SimHVAC: Maximum iterations (20) exceeded for all HVAC loops, at EXTREME_WINTER, 01/25 10:39 - 10:41
   **   ~~~   ** The solution for one or more of the Air Loop HVAC systems did not appear to converge
   **   ~~~   ** Air System Named = CENTRAL SYSTEM did not converge for mass flow rate
   **   ~~~   ** Check values should be zero. Most Recent values listed first.
   **   ~~~   ** Demand-to-Supply interface mass flow rate check value iteration history trace: 6.972123E-002,6.972123E-002,6.972123E-002,6.972123E-002,6.972123E-002,6.972123E-002,6.972123E-002,6.972123E-002,6.972123E-002,6.972123E-002,
   **   ~~~   ** Supply-to-demand interface deck 1 mass flow rate check value iteration history trace: 6.972123E-002,6.972123E-002,6.972123E-002,6.972123E-002,6.972123E-002,6.972123E-002,6.972123E-002,6.972123E-002,6.972123E-002,6.972123E-002,
   **   ~~~   ** Air System Named = CENTRAL SYSTEM did not converge for energy
   **   ~~~   ** Check values should be zero. Most Recent values listed first.
   **   ~~~   ** Demand-to-Supply interface energy check value iteration history trace: 1378.231739,1378.231739,1378.231739,1378.231739,1378.231739,1378.231739,1378.231739,1378.231739,1378.231739,1378.231738,
   **   ~~~   ** Supply-to-demand interface deck 1 energy check value iteration history trace: 2412.103363,2412.103363,2412.103363,2412.103363,2412.103363,2412.103363,2412.103363,2412.103363,2412.103363,2412.103363,
   ** Warning ** SimHVAC: Maximum iterations (20) exceeded for all HVAC loops, at ANNUAL, 01/27 07:15 - 07:30
   **   ~~~   ** The solution for one or more of the Air Loop HVAC systems did not appear to converge
   **   ~~~   ** Air System Named = CENTRAL SYSTEM did not converge for mass flow rate
   **   ~~~   ** Check values should be zero. Most Recent values listed first.
   **   ~~~   ** Demand-to-Supply interface mass flow rate check value iteration history trace: 6.401730E-002,6.401730E-002,6.401730E-002,6.401730E-002,6.401730E-002,6.401730E-002,6.401730E-002,6.401730E-002,6.401730E-002,6.401730E-002,
   **   ~~~   ** Supply-to-demand interface deck 1 mass flow rate check value iteration history trace: 6.401730E-002,6.401730E-002,6.401730E-002,6.401730E-002,6.401730E-002,6.401730E-002,6.401730E-002,6.401730E-002,6.401730E-002,6.401730E-002,
   **   ~~~   ** Air System Named = CENTRAL SYSTEM did not converge for energy
   **   ~~~   ** Check values should be zero. Most Recent values listed first.
   **   ~~~   ** Demand-to-Supply interface energy check value iteration history trace: 1266.371893,1266.371893,1266.371893,1266.371893,1266.371893,1266.371893,1266.371893,1266.371893,1266.371893,1266.371892,
   **   ~~~   ** Supply-to-demand interface deck 1 energy check value iteration history trace: 2260.053550,2260.053549,2260.053549,2260.053549,2260.053549,2260.053549,2260.053549,2260.053549,2260.053549,2260.053549,
   ** Warning ** SimHVAC: Maximum iterations (20) exceeded for all HVAC loops, at ANNUAL, 03/09 06:25 - 06:30
   **   ~~~   ** The solution for one or more of the Air Loop HVAC systems did not appear to converge
   **   ~~~   ** Air System Named = CENTRAL SYSTEM did not converge for mass flow rate
   **   ~~~   ** Check values should be zero. Most Recent values listed first.
   **   ~~~   ** Demand-to-Supply interface mass flow rate check value iteration history trace: 6.657146E-002,6.657146E-002,6.657146E-002,6.657146E-002,6.657146E-002,6.657146E-002,6.657146E-002,6.657146E-002,6.657146E-002,6.657146E-002,
   **   ~~~   ** Supply-to-demand interface deck 1 mass flow rate check value iteration history trace: 6.657146E-002,6.657146E-002,6.657146E-002,6.657146E-002,6.657146E-002,6.657146E-002,6.657146E-002,6.657146E-002,6.657146E-002,6.657146E-002,
   **   ~~~   ** Air System Named = CENTRAL SYSTEM did not converge for energy
   **   ~~~   ** Check values should be zero. Most Recent values listed first.
   **   ~~~   ** Demand-to-Supply interface energy check value iteration history trace: 1313.690048,1313.690048,1313.690048,1313.690048,1313.690048,1313.690047,1313.690047,1313.690047,1313.690047,1313.690047,
   **   ~~~   ** Supply-to-demand interface deck 1 energy check value iteration history trace: 2340.386887,2340.386887,2340.386886,2340.386886,2340.386886,2340.386886,2340.386886,2340.386886,2340.386886,2340.386886,
   ** Warning ** SimHVAC: Maximum iterations (20) exceeded for all HVAC loops, at ANNUAL, 04/06 17:35 - 17:40
   **   ~~~   ** The solution for one or more of the Air Loop HVAC systems did not appear to converge
   **   ~~~   ** Air System Named = CENTRAL SYSTEM did not converge for mass flow rate
   **   ~~~   ** Check values should be zero. Most Recent values listed first.
   **   ~~~   ** Demand-to-Supply interface mass flow rate check value iteration history trace: 0.153769,0.153769,0.153769,0.153769,0.153769,0.153769,0.153769,0.153769,0.153769,0.153769,
   **   ~~~   ** Supply-to-demand interface deck 1 mass flow rate check value iteration history trace: 0.153769,0.153769,0.153769,0.153769,0.153769,0.153769,0.153769,0.153769,0.153769,0.153769,
   **   ~~~   ** Air System Named = CENTRAL SYSTEM did not converge for energy
   **   ~~~   ** Check values should be zero. Most Recent values listed first.
   **   ~~~   ** Demand-to-Supply interface energy check value iteration history trace: 3621.033344,3621.033345,3621.033345,3621.033346,3621.033347,3621.033347,3621.033348,3621.033348,3621.033349,3621.033350,
   **   ~~~   ** Supply-to-demand interface deck 1 energy check value iteration history trace: 1630.245688,1630.245688,1630.245689,1630.245689,1630.245689,1630.245689,1630.245690,1630.245690,1630.245690,1630.245690,
   ** Warning ** SimHVAC: Maximum iterations (20) exceeded for all HVAC loops, at ANNUAL, 04/06 20:00 - 20:15
   **   ~~~   ** The solution for one or more of the Air Loop HVAC systems did not appear to converge
   **   ~~~   ** Air System Named = CENTRAL SYSTEM did not converge for mass flow rate
   **   ~~~   ** Check values should be zero. Most Recent values listed first.
   **   ~~~   ** Demand-to-Supply interface mass flow rate check value iteration history trace: 0.101666,0.101666,0.101666,0.101666,0.101666,0.101666,0.101666,0.101666,0.101666,0.101666,
   **   ~~~   ** Supply-to-demand interface deck 1 mass flow rate check value iteration history trace: 0.101666,0.101666,0.101666,0.101666,0.101666,0.101666,0.101666,0.101666,0.101666,0.101666,
   **   ~~~   ** Air System Named = CENTRAL SYSTEM did not converge for energy
   **   ~~~   ** Check values should be zero. Most Recent values listed first.
   **   ~~~   ** Demand-to-Supply interface energy check value iteration history trace: 2420.447120,2420.447121,2420.447121,2420.447121,2420.447122,2420.447122,2420.447122,2420.447123,2420.447123,2420.447123,
   **   ~~~   ** Supply-to-demand interface deck 1 energy check value iteration history trace: 1098.116544,1098.116545,1098.116545,1098.116545,1098.116545,1098.116545,1098.116545,1098.116545,1098.116546,1098.116546,
   ** Warning ** SimHVAC: Maximum iterations (20) exceeded for all HVAC loops, at ANNUAL, 11/07 18:08 - 18:11
   **   ~~~   ** The solution for one or more of the Air Loop HVAC systems did not appear to converge
   **   ~~~   ** Air System Named = CENTRAL SYSTEM did not converge for mass flow rate
   **   ~~~   ** Check values should be zero. Most Recent values listed first.
   **   ~~~   ** Demand-to-Supply interface mass flow rate check value iteration history trace: 0.196975,0.196975,0.196975,0.196975,0.196975,0.196975,0.196975,0.196975,0.196975,0.196975,
   **   ~~~   ** Supply-to-demand interface deck 1 mass flow rate check value iteration history trace: 0.196975,0.196975,0.196975,0.196975,0.196975,0.196975,0.196975,0.196975,0.196975,0.196975,
   **   ~~~   ** Air System Named = CENTRAL SYSTEM did not converge for energy
   **   ~~~   ** Check values should be zero. Most Recent values listed first.
   **   ~~~   ** Demand-to-Supply interface energy check value iteration history trace: 4716.535530,4716.535530,4716.535531,4716.535531,4716.535531,4716.535532,4716.535532,4716.535532,4716.535532,4716.535533,
   **   ~~~   ** Supply-to-demand interface deck 1 energy check value iteration history trace: 1789.333791,1789.333792,1789.333792,1789.333792,1789.333792,1789.333792,1789.333792,1789.333792,1789.333792,1789.333792,
   ** Warning ** SimHVAC: Maximum iterations (20) exceeded for all HVAC loops, at ANNUAL, 11/12 08:00 - 08:15
   **   ~~~   ** The solution for one or more of the Air Loop HVAC systems did not appear to converge
   **   ~~~   ** Air System Named = CENTRAL SYSTEM did not converge for mass flow rate
   **   ~~~   ** Check values should be zero. Most Recent values listed first.
   **   ~~~   ** Demand-to-Supply interface mass flow rate check value iteration history trace: 7.994368E-002,7.994368E-002,7.994368E-002,7.994368E-002,7.994368E-002,7.994368E-002,7.994368E-002,7.994368E-002,7.994368E-002,7.994368E-002,
   **   ~~~   ** Supply-to-demand interface deck 1 mass flow rate check value iteration history trace: 7.994368E-002,7.994368E-002,7.994368E-002,7.994368E-002,7.994368E-002,7.994368E-002,7.994368E-002,7.994368E-002,7.994368E-002,7.994368E-002,
   **   ~~~   ** Air System Named = CENTRAL SYSTEM did not converge for energy
   **   ~~~   ** Check values should be zero. Most Recent values listed first.
   **   ~~~   ** Demand-to-Supply interface energy check value iteration history trace: 1580.914421,1580.914421,1580.914421,1580.914421,1580.914421,1580.914421,1580.914421,1580.914421,1580.914421,1580.914421,
   **   ~~~   ** Supply-to-demand interface deck 1 energy check value iteration history trace: 2660.276041,2660.276041,2660.276041,2660.276041,2660.276041,2660.276041,2660.276041,2660.276040,2660.276040,2660.276040,
   ** Warning ** SimHVAC: Maximum iterations (20) exceeded for all HVAC loops, at ANNUAL, 11/16 19:53 - 20:00
   **   ~~~   ** The solution for one or more of the Air Loop HVAC systems did not appear to converge
   **   ~~~   ** Air System Named = CENTRAL SYSTEM did not converge for mass flow rate
   **   ~~~   ** Check values should be zero. Most Recent values listed first.
   **   ~~~   ** Demand-to-Supply interface mass flow rate check value iteration history trace: 0.245500,0.245500,0.245500,0.245500,0.245500,0.245500,0.245500,0.245500,0.245500,0.245500,
   **   ~~~   ** Supply-to-demand interface deck 1 mass flow rate check value iteration history trace: 0.245500,0.245500,0.245500,0.245500,0.245500,0.245500,0.245500,0.245500,0.245500,0.245500,
   **   ~~~   ** Air System Named = CENTRAL SYSTEM did not converge for energy
   **   ~~~   ** Check values should be zero. Most Recent values listed first.
   **   ~~~   ** Demand-to-Supply interface energy check value iteration history trace: 5862.530549,5862.530550,5862.530550,5862.530551,5862.530551,5862.530552,5862.530552,5862.530553,5862.530553,5862.530554,
   **   ~~~   ** Supply-to-demand interface deck 1 energy check value iteration history trace: 3445.513025,3445.513025,3445.513025,3445.513026,3445.513026,3445.513026,3445.513027,3445.513027,3445.513027,3445.513028,
   ** Warning ** SimHVAC: Maximum iterations (20) exceeded for all HVAC loops, at ANNUAL, 11/22 07:45 - 08:00
   **   ~~~   ** The solution for one or more of the Air Loop HVAC systems did not appear to converge
   **   ~~~   ** Air System Named = CENTRAL SYSTEM did not converge for mass flow rate
   **   ~~~   ** Check values should be zero. Most Recent values listed first.
   **   ~~~   ** Demand-to-Supply interface mass flow rate check value iteration history trace: 4.553628E-002,4.553628E-002,4.553628E-002,4.553628E-002,4.553628E-002,4.553628E-002,4.553628E-002,4.553628E-002,4.553628E-002,4.553628E-002,
   **   ~~~   ** Supply-to-demand interface deck 1 mass flow rate check value iteration history trace: 4.553628E-002,4.553628E-002,4.553628E-002,4.553628E-002,4.553628E-002,4.553628E-002,4.553628E-002,4.553628E-002,4.553628E-002,4.553628E-002,
   **   ~~~   ** Air System Named = CENTRAL SYSTEM did not converge for energy
   **   ~~~   ** Check values should be zero. Most Recent values listed first.
   **   ~~~   ** Demand-to-Supply interface energy check value iteration history trace: 893.094589,893.094589,893.094589,893.094589,893.094589,893.094589,893.094589,893.094589,893.094589,893.094589,
   **   ~~~   ** Supply-to-demand interface deck 1 energy check value iteration history trace: 1563.335452,1563.335452,1563.335452,1563.335452,1563.335452,1563.335452,1563.335452,1563.335452,1563.335452,1563.335452,
   ** Warning ** SimHVAC: Maximum iterations (20) exceeded for all HVAC loops, at ANNUAL, 11/27 18:19 - 18:22
   **   ~~~   ** The solution for one or more of the Air Loop HVAC systems did not appear to converge
   **   ~~~   ** Air System Named = CENTRAL SYSTEM did not converge for mass flow rate
   **   ~~~   ** Check values should be zero. Most Recent values listed first.
   **   ~~~   ** Demand-to-Supply interface mass flow rate check value iteration history trace: 0.180215,0.180215,0.180215,0.180215,0.180215,0.180215,0.180215,0.180215,0.180215,0.180215,
   **   ~~~   ** Supply-to-demand interface deck 1 mass flow rate check value iteration history trace: 0.180215,0.180215,0.180215,0.180215,0.180215,0.180215,0.180215,0.180215,0.180215,0.180215,
   **   ~~~   ** Air System Named = CENTRAL SYSTEM did not converge for energy
   **   ~~~   ** Check values should be zero. Most Recent values listed first.
   **   ~~~   ** Demand-to-Supply interface energy check value iteration history trace: 4262.351852,4262.351852,4262.351852,4262.351852,4262.351853,4262.351853,4262.351853,4262.351853,4262.351854,4262.351854,
   **   ~~~   ** Supply-to-demand interface deck 1 energy check value iteration history trace: 1607.249728,1607.249728,1607.249728,1607.249728,1607.249728,1607.249728,1607.249728,1607.249729,1607.249729,1607.249729,
   ************* Simulation Error Summary *************
   ** Warning ** The following Report Variables were requested but not generated -- check.rdd file
   **   ~~~   ** Either the IDF did not contain these elements, the variable name is misspelled,
   **   ~~~   ** or the requested variable is an advanced output which requires Output : Diagnostics, DisplayAdvancedReportVariables;
   ************* Key=*, VarName=BASEBOARD TOTAL HEATING ENERGY, Frequency=
   ************* Key=*, VarName=WATER HEATER NATURALGAS ENERGY, Frequency=
   ************* Key=*, VarName=COOLING COIL TOTAL HEATING ENERGY, Frequency=
   ************* There are 34 unused schedules in input.
   ************* There are 388 unused week schedules in input.
   ************* There are 396 unused day schedules in input.
   ************* Use Output:Diagnostics,DisplayUnusedSchedules; to see them.
   *************
   ************* ===== Recurring Error Summary =====
   ************* The following recurring error messages occurred.
   *************
   *************  ** Warning ** "TOTAL HOT WATER LOAD" - Target water temperature should be less than or equal to the hot water temperature error continues...
   *************  **   ~~~   **   This error occurred 112809 total times;
   *************  **   ~~~   **   during Warmup 0 times;
   *************  **   ~~~   **   during Sizing 0 times.
   *************  **   ~~~   **   Max=8.381393  Min=6.750612E-005
   *************
   *************
   ************* ===== Final Error Summary =====
   ************* The following error categories occurred.  Consider correcting or noting.
   ************* Nominally Unused Constructions
   ************* ..The nominally unused constructions warning is provided to alert you to potential conditions that can cause
   ************* ..extra time during simulation. Each construction is calculated by the algorithm indicated in the HeatBalanceAlgorithm
   ************* ..object. You may remove the constructions indicated (when you use the DisplayExtraWarnings option).
   *************
   ************* EnergyPlus Warmup Error Summary. During Warmup: 1 Warning; 0 Severe Errors.
   ************* EnergyPlus Sizing Error Summary. During Sizing: 4 Warning; 0 Severe Errors.
   ************* EnergyPlus Completed Successfully-- 112837 Warning; 0 Severe Errors; Elapsed Time=00hr 05min 38.53sec
