Program Version,EnergyPlus, Version 22.2.0-c249759bad, YMD=2023.09.01 19:56,
   ************* Beginning Zone Sizing Calculations
   ** Warning ** ProcessScheduleInput: Schedule:Constant="ALWAYS ON DISCRETE", Schedule Type Limits Name="ONOFF" not found -- will not be validated
   ** Warning ** Foundation:Kiva="KIVA FOUNDATION", no Interior Horizontal Insulation Material Name defined
   **   ~~~   ** Interior Horizontal Insulation Depth will not be used.
   ** Warning ** CheckUsedConstructions: There are 15 nominally unused constructions in input.
   **   ~~~   ** Each Unused construction is shown.
   ************* Construction=INTERIOR FLOOR
   ************* Construction=INTERIOR WINDOW
   ************* Construction=EXTERIOR DOOR
   ************* Construction=INTERIOR DOOR
   ************* Construction=GABLE CONSTRUCTION
   ************* Construction=CRAWL_FLOOR
   ************* Construction=INSULATED PIPE
   ************* Construction=PLAIN PIPE
   ************* Construction=TDD PIPE
   ************* Construction=TDD DOME
   ************* Construction=TDD DIFFUSER
   ************* Construction=CRAWL WALL
   ************* Construction=CEILING-FLOOR-LAYER
   ************* Construction=SLAB CONSTRUCTION W FULL R10 INSULATION
   ************* Construction=SLAB CONSTRUCTION W FULL R5 INSULATION
   ** Warning ** GetDXCoils: Coil:Heating:DX:SingleSpeed="DX_HEATING_COIL" curve values
   **   ~~~   ** ... Defrost Energy Input Ratio Function of Temperature Curve Name = DEFROSTEIR output is not equal to 1.0 (+ or - 10%) at rated conditions.
   **   ~~~   ** ... Curve output at rated conditions = 0.152
   ************* Beginning System Sizing Calculations
   ************* Beginning Plant Sizing Calculations
   ** Warning ** SizeDXCoil Coil:Cooling:DX:SingleSpeed DX_COOLING_COIL
   **   ~~~   ** ...Gross Rated Total Cooling Capacity [W] will be limited by the maximum rated volume flow per rated total capacity ratio.
   **   ~~~   ** ...DX coil volume flow rate ( m3/s ) = 0.408717
   **   ~~~   ** ...Requested capacity ( W ) = 6734.380
   **   ~~~   ** ...Requested flow/capacity ratio ( m3/s/W ) = 6.069E-005
   **   ~~~   ** ...Maximum flow/capacity ratio ( m3/s/W ) = 6.041E-005
   **   ~~~   ** ...Adjusted capacity ( W ) = 6765.725
   ** Warning ** Coil:WaterHeating:AirToWaterHeatPump:Wrapped "HEAT PUMP WATER HEATER EVAPORATOR": Rated air volume flow rate per watt of rated total water heating capacity is out of range
   **   ~~~   ** Min Rated Vol Flow Per Watt=[4.027E-005], Rated Vol Flow Per Watt=[1.510E-004], Max Rated Vol Flow Per Watt=[8.056E-005]. See Input-Output Reference Manual for valid range.
   ************* SizeFan: : Potential issue with equipment sizing for Fan:OnOff HEAT PUMP WATER HEATER FAN
   **   ~~~   ** User-Specified Maximum Flow Rate [m3/s] = 0.22653
   **   ~~~   ** differs from Design Size Maximum Flow Rate [m3/s] = 7.55250E-002
   **   ~~~   ** This may, or may not, indicate mismatched component sizes.
   **   ~~~   ** Verify that the value entered is intended and is consistent with other components.
   ** Warning ** Water heater = WATER HEATER TANK:  Recovery Efficiency and Energy Factor could not be calculated during the test for standard ratings
   **   ~~~   ** Setpoint was never recovered and/or heater never turned on
   ** Warning ** Check input. Pump nominal power or motor efficiency is set to 0, for pump=MAINS PRESSURE
   ** Warning ** Output:Meter: invalid Key Name="ELECTRIC_RANGE:INTERIOREQUIPMENT:ELECTRICITY" - not found.
   ** Warning ** Output:Meter: invalid Key Name="ELECTRIC_DRYER:INTERIOREQUIPMENT:ELECTRICITY" - not found.
   ** Warning ** Output:Meter: invalid Key Name="HEATRECOVERY:ELECTRICITY" - not found.
   ** Warning ** Output:Meter: invalid Key Name="HEATING:NATURALGAS" - not found.
   ** Warning ** Output:Meter: invalid Key Name="WATERSYSTEMS:NATURALGAS" - not found.
   ** Warning ** Output:Meter: invalid Key Name="PROPANE:FACILITY" - not found.
   ** Warning ** Output:Meter: invalid Key Name="HEATING:PROPANE" - not found.
   ************* Testing Individual Branch Integrity
   ************* All Branches passed integrity testing
   ************* Testing Individual Supply Air Path Integrity
   ************* All Supply Air Paths passed integrity testing
   ************* Testing Individual Return Air Path Integrity
   ************* All Return Air Paths passed integrity testing
   ************* No node connection errors were found.
   ************* Beginning Simulation
   ** Warning ** AirflowNetwork::Solver::validate_distribution: Heat pump water heater is simulated along with an AirflowNetwork but is not included in the AirflowNetwork.
   ** Warning ** CalcEquipmentFlowRates: "TOTAL HOT WATER LOAD" - Target water temperature is greater than the hot water temperature by (4.73 C)
   **   ~~~   **  Environment=EXTREME_WINTER, at Simulation time=01/13 07:00 - 07:15
   **   ~~~   ** ...target water temperature     = 53.33 C
   **   ~~~   ** ...hot water temperature        = 48.61 C
   **   ~~~   ** ...Target water temperature should be less than or equal to the hot water temperature. Verify temperature setpoints and schedules.
   ** Warning ** SimHVAC: Maximum iterations (20) exceeded for all HVAC loops, at EXTREME_WINTER, 01/15 08:00 - 08:15
   **   ~~~   ** The solution for one or more of the Air Loop HVAC systems did not appear to converge
   **   ~~~   ** Air System Named = CENTRAL SYSTEM did not converge for mass flow rate
   **   ~~~   ** Check values should be zero. Most Recent values listed first.
   **   ~~~   ** Demand-to-Supply interface mass flow rate check value iteration history trace: 6.460327E-002,6.460327E-002,6.460327E-002,6.460327E-002,6.460327E-002,6.460327E-002,6.460327E-002,6.460327E-002,6.460327E-002,6.460327E-002,
   **   ~~~   ** Supply-to-demand interface deck 1 mass flow rate check value iteration history trace: 6.460327E-002,6.460327E-002,6.460327E-002,6.460327E-002,6.460327E-002,6.460327E-002,6.460327E-002,6.460327E-002,6.460327E-002,6.460327E-002,
   **   ~~~   ** Air System Named = CENTRAL SYSTEM did not converge for energy
   **   ~~~   ** Check values should be zero. Most Recent values listed first.
   **   ~~~   ** Demand-to-Supply interface energy check value iteration history trace: 1269.478041,1269.478041,1269.478041,1269.478041,1269.478041,1269.478041,1269.478041,1269.478041,1269.478040,1269.478040,
   **   ~~~   ** Supply-to-demand interface deck 1 energy check value iteration history trace: 2163.148444,2163.148444,2163.148444,2163.148444,2163.148444,2163.148444,2163.148444,2163.148444,2163.148444,2163.148443,
   ** Warning ** SimHVAC: Maximum iterations (20) exceeded for all HVAC loops, at ANNUAL, 01/15 10:00 - 10:08
   **   ~~~   ** The solution for one or more of the Air Loop HVAC systems did not appear to converge
   **   ~~~   ** Air System Named = CENTRAL SYSTEM did not converge for mass flow rate
   **   ~~~   ** Check values should be zero. Most Recent values listed first.
   **   ~~~   ** Demand-to-Supply interface mass flow rate check value iteration history trace: 7.007484E-002,7.007484E-002,7.007484E-002,7.007484E-002,7.007484E-002,7.007484E-002,7.007484E-002,7.007484E-002,7.007484E-002,7.007484E-002,
   **   ~~~   ** Supply-to-demand interface deck 1 mass flow rate check value iteration history trace: 7.007484E-002,7.007484E-002,7.007484E-002,7.007484E-002,7.007484E-002,7.007484E-002,7.007484E-002,7.007484E-002,7.007484E-002,7.007484E-002,
   **   ~~~   ** Air System Named = CENTRAL SYSTEM did not converge for energy
   **   ~~~   ** Check values should be zero. Most Recent values listed first.
   **   ~~~   ** Demand-to-Supply interface energy check value iteration history trace: 1385.616991,1385.616990,1385.616990,1385.616990,1385.616990,1385.616990,1385.616990,1385.616990,1385.616990,1385.616990,
   **   ~~~   ** Supply-to-demand interface deck 1 energy check value iteration history trace: 2368.825484,2368.825484,2368.825484,2368.825484,2368.825484,2368.825484,2368.825484,2368.825484,2368.825483,2368.825483,
   ** Warning ** SimHVAC: Maximum iterations (20) exceeded for all HVAC loops, at ANNUAL, 01/17 10:55 - 11:00
   **   ~~~   ** The solution for one or more of the Air Loop HVAC systems did not appear to converge
   **   ~~~   ** Air System Named = CENTRAL SYSTEM did not converge for mass flow rate
   **   ~~~   ** Check values should be zero. Most Recent values listed first.
   **   ~~~   ** Demand-to-Supply interface mass flow rate check value iteration history trace: 8.224155E-002,8.224155E-002,8.224155E-002,8.224155E-002,8.224155E-002,8.224155E-002,8.224155E-002,8.224154E-002,8.224154E-002,8.224154E-002,
   **   ~~~   ** Supply-to-demand interface deck 1 mass flow rate check value iteration history trace: 8.224155E-002,8.224155E-002,8.224155E-002,8.224155E-002,8.224155E-002,8.224155E-002,8.224155E-002,8.224154E-002,8.224154E-002,8.224154E-002,
   **   ~~~   ** Air System Named = CENTRAL SYSTEM did not converge for energy
   **   ~~~   ** Check values should be zero. Most Recent values listed first.
   **   ~~~   ** Demand-to-Supply interface energy check value iteration history trace: 1614.164378,1614.164378,1614.164378,1614.164378,1614.164378,1614.164377,1614.164377,1614.164377,1614.164377,1614.164377,
   **   ~~~   ** Supply-to-demand interface deck 1 energy check value iteration history trace: 2730.874408,2730.874408,2730.874408,2730.874408,2730.874408,2730.874408,2730.874408,2730.874407,2730.874407,2730.874407,
   ** Warning ** SimHVAC: Maximum iterations (20) exceeded for all HVAC loops, at ANNUAL, 01/20 21:45 - 21:52
   **   ~~~   ** The solution for one or more of the Air Loop HVAC systems did not appear to converge
   **   ~~~   ** Air System Named = CENTRAL SYSTEM did not converge for mass flow rate
   **   ~~~   ** Check values should be zero. Most Recent values listed first.
   **   ~~~   ** Demand-to-Supply interface mass flow rate check value iteration history trace: 6.389300E-002,6.389300E-002,6.389300E-002,6.389300E-002,6.389300E-002,6.389300E-002,6.389300E-002,6.389300E-002,6.389300E-002,6.389300E-002,
   **   ~~~   ** Supply-to-demand interface deck 1 mass flow rate check value iteration history trace: 6.389300E-002,6.389300E-002,6.389300E-002,6.389300E-002,6.389300E-002,6.389300E-002,6.389300E-002,6.389300E-002,6.389300E-002,6.389300E-002,
   **   ~~~   ** Air System Named = CENTRAL SYSTEM did not converge for energy
   **   ~~~   ** Check values should be zero. Most Recent values listed first.
   **   ~~~   ** Demand-to-Supply interface energy check value iteration history trace: 1265.321547,1265.321547,1265.321547,1265.321547,1265.321547,1265.321547,1265.321547,1265.321547,1265.321547,1265.321547,
   **   ~~~   ** Supply-to-demand interface deck 1 energy check value iteration history trace: 2129.755714,2129.755713,2129.755713,2129.755713,2129.755713,2129.755713,2129.755713,2129.755713,2129.755713,2129.755713,
   ** Warning ** SimHVAC: Maximum iterations (20) exceeded for all HVAC loops, at ANNUAL, 01/21 11:30 - 11:45
   **   ~~~   ** The solution for one or more of the Air Loop HVAC systems did not appear to converge
   **   ~~~   ** Air System Named = CENTRAL SYSTEM did not converge for mass flow rate
   **   ~~~   ** Check values should be zero. Most Recent values listed first.
   **   ~~~   ** Demand-to-Supply interface mass flow rate check value iteration history trace: 5.839859E-002,5.839859E-002,5.839859E-002,5.839859E-002,5.839859E-002,5.839859E-002,5.839859E-002,5.839859E-002,5.839859E-002,5.839859E-002,
   **   ~~~   ** Supply-to-demand interface deck 1 mass flow rate check value iteration history trace: 5.839859E-002,5.839859E-002,5.839859E-002,5.839859E-002,5.839859E-002,5.839859E-002,5.839859E-002,5.839859E-002,5.839859E-002,5.839859E-002,
   **   ~~~   ** Air System Named = CENTRAL SYSTEM did not converge for energy
   **   ~~~   ** Check values should be zero. Most Recent values listed first.
   **   ~~~   ** Demand-to-Supply interface energy check value iteration history trace: 1157.224479,1157.224479,1157.224479,1157.224479,1157.224479,1157.224479,1157.224479,1157.224478,1157.224478,1157.224478,
   **   ~~~   ** Supply-to-demand interface deck 1 energy check value iteration history trace: 1979.515150,1979.515150,1979.515150,1979.515149,1979.515149,1979.515149,1979.515149,1979.515149,1979.515149,1979.515149,
   ** Warning ** SimHVAC: Maximum iterations (20) exceeded for all HVAC loops, at ANNUAL, 01/21 11:38 - 11:45
   **   ~~~   ** The solution for one or more of the Air Loop HVAC systems did not appear to converge
   **   ~~~   ** Air System Named = CENTRAL SYSTEM did not converge for mass flow rate
   **   ~~~   ** Check values should be zero. Most Recent values listed first.
   **   ~~~   ** Demand-to-Supply interface mass flow rate check value iteration history trace: 5.817313E-002,5.817313E-002,5.817313E-002,5.817313E-002,5.817313E-002,5.817313E-002,5.817313E-002,5.817313E-002,5.817313E-002,5.817313E-002,
   **   ~~~   ** Supply-to-demand interface deck 1 mass flow rate check value iteration history trace: 5.817313E-002,5.817313E-002,5.817313E-002,5.817313E-002,5.817313E-002,5.817313E-002,5.817313E-002,5.817313E-002,5.817313E-002,5.817313E-002,
   **   ~~~   ** Air System Named = CENTRAL SYSTEM did not converge for energy
   **   ~~~   ** Check values should be zero. Most Recent values listed first.
   **   ~~~   ** Demand-to-Supply interface energy check value iteration history trace: 1152.810084,1152.810084,1152.810084,1152.810083,1152.810083,1152.810083,1152.810083,1152.810083,1152.810083,1152.810083,
   **   ~~~   ** Supply-to-demand interface deck 1 energy check value iteration history trace: 1971.898825,1971.898825,1971.898824,1971.898824,1971.898824,1971.898824,1971.898824,1971.898824,1971.898824,1971.898824,
   ** Warning ** SimHVAC: Maximum iterations (20) exceeded for all HVAC loops, at ANNUAL, 01/30 07:45 - 07:49
   **   ~~~   ** The solution for one or more of the Air Loop HVAC systems did not appear to converge
   **   ~~~   ** Air System Named = CENTRAL SYSTEM did not converge for mass flow rate
   **   ~~~   ** Check values should be zero. Most Recent values listed first.
   **   ~~~   ** Demand-to-Supply interface mass flow rate check value iteration history trace: 6.269842E-002,6.269842E-002,6.269842E-002,6.269842E-002,6.269842E-002,6.269842E-002,6.269842E-002,6.269842E-002,6.269842E-002,6.269842E-002,
   **   ~~~   ** Supply-to-demand interface deck 1 mass flow rate check value iteration history trace: 6.269842E-002,6.269842E-002,6.269842E-002,6.269842E-002,6.269842E-002,6.269842E-002,6.269842E-002,6.269842E-002,6.269842E-002,6.269842E-002,
   **   ~~~   ** Air System Named = CENTRAL SYSTEM did not converge for energy
   **   ~~~   ** Check values should be zero. Most Recent values listed first.
   **   ~~~   ** Demand-to-Supply interface energy check value iteration history trace: 1242.362660,1242.362660,1242.362660,1242.362660,1242.362660,1242.362660,1242.362660,1242.362660,1242.362660,1242.362660,
   **   ~~~   ** Supply-to-demand interface deck 1 energy check value iteration history trace: 2137.139990,2137.139990,2137.139990,2137.139990,2137.139990,2137.139990,2137.139990,2137.139990,2137.139990,2137.139990,
   ** Warning ** SimHVAC: Maximum iterations (20) exceeded for all HVAC loops, at ANNUAL, 01/30 08:00 - 08:15
   **   ~~~   ** The solution for one or more of the Air Loop HVAC systems did not appear to converge
   **   ~~~   ** Air System Named = CENTRAL SYSTEM did not converge for mass flow rate
   **   ~~~   ** Check values should be zero. Most Recent values listed first.
   **   ~~~   ** Demand-to-Supply interface mass flow rate check value iteration history trace: 6.179976E-002,6.179976E-002,6.179976E-002,6.179976E-002,6.179976E-002,6.179976E-002,6.179976E-002,6.179976E-002,6.179976E-002,6.179976E-002,
   **   ~~~   ** Supply-to-demand interface deck 1 mass flow rate check value iteration history trace: 6.179976E-002,6.179976E-002,6.179976E-002,6.179976E-002,6.179976E-002,6.179976E-002,6.179976E-002,6.179976E-002,6.179976E-002,6.179976E-002,
   **   ~~~   ** Air System Named = CENTRAL SYSTEM did not converge for energy
   **   ~~~   ** Check values should be zero. Most Recent values listed first.
   **   ~~~   ** Demand-to-Supply interface energy check value iteration history trace: 1224.314899,1224.314899,1224.314899,1224.314899,1224.314899,1224.314899,1224.314899,1224.314899,1224.314899,1224.314899,
   **   ~~~   ** Supply-to-demand interface deck 1 energy check value iteration history trace: 2121.279414,2121.279413,2121.279413,2121.279413,2121.279413,2121.279413,2121.279413,2121.279413,2121.279413,2121.279413,
   ** Warning ** SimHVAC: Maximum iterations (20) exceeded for all HVAC loops, at ANNUAL, 02/03 10:00 - 10:08
   **   ~~~   ** The solution for one or more of the Air Loop HVAC systems did not appear to converge
   **   ~~~   ** Air System Named = CENTRAL SYSTEM did not converge for mass flow rate
   **   ~~~   ** Check values should be zero. Most Recent values listed first.
   **   ~~~   ** Demand-to-Supply interface mass flow rate check value iteration history trace: 8.590854E-002,8.590854E-002,8.590854E-002,8.590854E-002,8.590854E-002,8.590854E-002,8.590854E-002,8.590854E-002,8.590854E-002,8.590854E-002,
   **   ~~~   ** Supply-to-demand interface deck 1 mass flow rate check value iteration history trace: 8.590854E-002,8.590854E-002,8.590854E-002,8.590854E-002,8.590854E-002,8.590854E-002,8.590854E-002,8.590854E-002,8.590854E-002,8.590854E-002,
   **   ~~~   ** Air System Named = CENTRAL SYSTEM did not converge for energy
   **   ~~~   ** Check values should be zero. Most Recent values listed first.
   **   ~~~   ** Demand-to-Supply interface energy check value iteration history trace: 1694.729891,1694.729891,1694.729891,1694.729891,1694.729891,1694.729891,1694.729891,1694.729890,1694.729890,1694.729890,
   **   ~~~   ** Supply-to-demand interface deck 1 energy check value iteration history trace: 2846.242743,2846.242742,2846.242742,2846.242742,2846.242742,2846.242742,2846.242742,2846.242741,2846.242741,2846.242741,
   ** Warning ** SimHVAC: Maximum iterations (20) exceeded for all HVAC loops, at ANNUAL, 02/23 09:15 - 09:30
   **   ~~~   ** The solution for one or more of the Air Loop HVAC systems did not appear to converge
   **   ~~~   ** Air System Named = CENTRAL SYSTEM did not converge for mass flow rate
   **   ~~~   ** Check values should be zero. Most Recent values listed first.
   **   ~~~   ** Demand-to-Supply interface mass flow rate check value iteration history trace: 9.972707E-002,9.972707E-002,9.972707E-002,9.972707E-002,9.972707E-002,9.972707E-002,9.972707E-002,9.972707E-002,9.972707E-002,9.972707E-002,
   **   ~~~   ** Supply-to-demand interface deck 1 mass flow rate check value iteration history trace: 9.972707E-002,9.972707E-002,9.972707E-002,9.972707E-002,9.972707E-002,9.972707E-002,9.972707E-002,9.972707E-002,9.972707E-002,9.972707E-002,
   **   ~~~   ** Air System Named = CENTRAL SYSTEM did not converge for energy
   **   ~~~   ** Check values should be zero. Most Recent values listed first.
   **   ~~~   ** Demand-to-Supply interface energy check value iteration history trace: 1976.244016,1976.244016,1976.244015,1976.244015,1976.244015,1976.244015,1976.244015,1976.244015,1976.244015,1976.244015,
   **   ~~~   ** Supply-to-demand interface deck 1 energy check value iteration history trace: 3102.327705,3102.327705,3102.327705,3102.327705,3102.327705,3102.327704,3102.327704,3102.327704,3102.327704,3102.327704,
   ** Warning ** SimHVAC: Maximum iterations (20) exceeded for all HVAC loops, at ANNUAL, 02/28 09:15 - 09:22
   **   ~~~   ** The solution for one or more of the Air Loop HVAC systems did not appear to converge
   **   ~~~   ** Air System Named = CENTRAL SYSTEM did not converge for mass flow rate
   **   ~~~   ** Check values should be zero. Most Recent values listed first.
   **   ~~~   ** Demand-to-Supply interface mass flow rate check value iteration history trace: 5.441310E-002,5.441310E-002,5.441310E-002,5.441310E-002,5.441310E-002,5.441310E-002,5.441310E-002,5.441310E-002,5.441310E-002,5.441310E-002,
   **   ~~~   ** Supply-to-demand interface deck 1 mass flow rate check value iteration history trace: 5.441310E-002,5.441310E-002,5.441310E-002,5.441310E-002,5.441310E-002,5.441310E-002,5.441310E-002,5.441310E-002,5.441310E-002,5.441310E-002,
   **   ~~~   ** Air System Named = CENTRAL SYSTEM did not converge for energy
   **   ~~~   ** Check values should be zero. Most Recent values listed first.
   **   ~~~   ** Demand-to-Supply interface energy check value iteration history trace: 1078.267088,1078.267088,1078.267088,1078.267088,1078.267088,1078.267088,1078.267088,1078.267088,1078.267088,1078.267088,
   **   ~~~   ** Supply-to-demand interface deck 1 energy check value iteration history trace: 1939.065422,1939.065422,1939.065422,1939.065422,1939.065422,1939.065422,1939.065422,1939.065422,1939.065422,1939.065422,
   ** Warning ** SimHVAC: Maximum iterations (20) exceeded for all HVAC loops, at ANNUAL, 03/12 03:45 - 03:52
   **   ~~~   ** The solution for one or more of the Air Loop HVAC systems did not appear to converge
   **   ~~~   ** Air System Named = CENTRAL SYSTEM did not converge for mass flow rate
   **   ~~~   ** Check values should be zero. Most Recent values listed first.
   **   ~~~   ** Demand-to-Supply interface mass flow rate check value iteration history trace: 7.800386E-002,7.800386E-002,7.800386E-002,7.800386E-002,7.800386E-002,7.800386E-002,7.800386E-002,7.800386E-002,7.800386E-002,7.800386E-002,
   **   ~~~   ** Supply-to-demand interface deck 1 mass flow rate check value iteration history trace: 7.800386E-002,7.800386E-002,7.800386E-002,7.800386E-002,7.800386E-002,7.800386E-002,7.800386E-002,7.800386E-002,7.800386E-002,7.800386E-002,
   **   ~~~   ** Air System Named = CENTRAL SYSTEM did not converge for energy
   **   ~~~   ** Check values should be zero. Most Recent values listed first.
   **   ~~~   ** Demand-to-Supply interface energy check value iteration history trace: 1458.666000,1458.666000,1458.666000,1458.666000,1458.666000,1458.665999,1458.665999,1458.665999,1458.665999,1458.665999,
   **   ~~~   ** Supply-to-demand interface deck 1 energy check value iteration history trace: 2233.656944,2233.656944,2233.656944,2233.656943,2233.656943,2233.656943,2233.656943,2233.656943,2233.656943,2233.656943,
   ** Warning ** SimHVAC: Maximum iterations (20) exceeded for all HVAC loops, at ANNUAL, 04/10 22:30 - 22:45
   **   ~~~   ** The solution for one or more of the Air Loop HVAC systems did not appear to converge
   **   ~~~   ** Air System Named = CENTRAL SYSTEM did not converge for mass flow rate
   **   ~~~   ** Check values should be zero. Most Recent values listed first.
   **   ~~~   ** Demand-to-Supply interface mass flow rate check value iteration history trace: 1.992178E-002,1.992178E-002,1.992178E-002,1.992178E-002,1.992178E-002,1.992178E-002,1.992178E-002,1.992178E-002,1.992178E-002,1.992178E-002,
   **   ~~~   ** Supply-to-demand interface deck 1 mass flow rate check value iteration history trace: 1.992178E-002,1.992178E-002,1.992178E-002,1.992178E-002,1.992178E-002,1.992178E-002,1.992178E-002,1.992178E-002,1.992178E-002,1.992178E-002,
   **   ~~~   ** Air System Named = CENTRAL SYSTEM did not converge for energy
   **   ~~~   ** Check values should be zero. Most Recent values listed first.
   **   ~~~   ** Demand-to-Supply interface energy check value iteration history trace: 489.098619,489.098619,489.098619,489.098619,489.098619,489.098619,489.098619,489.098619,489.098619,489.098619,
   **   ~~~   ** Supply-to-demand interface deck 1 energy check value iteration history trace: 243.943174,243.943174,243.943174,243.943174,243.943174,243.943174,243.943174,243.943174,243.943174,243.943174,
   ** Warning ** SimHVAC: Maximum iterations (20) exceeded for all HVAC loops, at ANNUAL, 04/25 12:11 - 12:15
   **   ~~~   ** The solution for one or more of the Air Loop HVAC systems did not appear to converge
   **   ~~~   ** Air System Named = CENTRAL SYSTEM did not converge for mass flow rate
   **   ~~~   ** Check values should be zero. Most Recent values listed first.
   **   ~~~   ** Demand-to-Supply interface mass flow rate check value iteration history trace: 3.393224E-002,3.393224E-002,3.393224E-002,3.393224E-002,3.393224E-002,3.393224E-002,3.393224E-002,3.393224E-002,3.393224E-002,3.393224E-002,
   **   ~~~   ** Supply-to-demand interface deck 1 mass flow rate check value iteration history trace: 3.393224E-002,3.393224E-002,3.393224E-002,3.393224E-002,3.393224E-002,3.393224E-002,3.393224E-002,3.393224E-002,3.393224E-002,3.393224E-002,
   **   ~~~   ** Air System Named = CENTRAL SYSTEM did not converge for energy
   **   ~~~   ** Check values should be zero. Most Recent values listed first.
   **   ~~~   ** Demand-to-Supply interface energy check value iteration history trace: 796.179853,796.179853,796.179853,796.179853,796.179853,796.179853,796.179853,796.179853,796.179853,796.179853,
   **   ~~~   ** Supply-to-demand interface deck 1 energy check value iteration history trace: 351.647444,351.647444,351.647445,351.647445,351.647445,351.647445,351.647445,351.647445,351.647445,351.647445,
   ************* Simulation Error Summary *************
   ** Warning ** The following Report Variables were requested but not generated -- check.rdd file
   **   ~~~   ** Either the IDF did not contain these elements, the variable name is misspelled,
   **   ~~~   ** or the requested variable is an advanced output which requires Output : Diagnostics, DisplayAdvancedReportVariables;
   ************* Key=*, VarName=BASEBOARD TOTAL HEATING ENERGY, Frequency=
   ************* Key=*, VarName=WATER HEATER NATURALGAS ENERGY, Frequency=
   ************* Key=*, VarName=COOLING COIL TOTAL HEATING ENERGY, Frequency=
   ************* There are 34 unused schedules in input.
   ************* There are 388 unused week schedules in input.
   ************* There are 396 unused day schedules in input.
   ************* Use Output:Diagnostics,DisplayUnusedSchedules; to see them.
   *************
   ************* ===== Recurring Error Summary =====
   ************* The following recurring error messages occurred.
   *************
   *************  ** Warning ** "TOTAL HOT WATER LOAD" - Target water temperature should be less than or equal to the hot water temperature error continues...
   *************  **   ~~~   **   This error occurred 184819 total times;
   *************  **   ~~~   **   during Warmup 0 times;
   *************  **   ~~~   **   during Sizing 0 times.
   *************  **   ~~~   **   Max=12.446336  Min=1.307400E-004
   *************
   *************  ** Warning ** SimHVAC: Exceeding Maximum iterations for all HVAC loops, during ANNUAL continues
   *************  **   ~~~   **   This error occurred 8 total times;
   *************  **   ~~~   **   during Warmup 0 times;
   *************  **   ~~~   **   during Sizing 0 times.
   *************
   *************
   ************* ===== Final Error Summary =====
   ************* The following error categories occurred.  Consider correcting or noting.
   ************* Nominally Unused Constructions
   ************* ..The nominally unused constructions warning is provided to alert you to potential conditions that can cause
   ************* ..extra time during simulation. Each construction is calculated by the algorithm indicated in the HeatBalanceAlgorithm
   ************* ..object. You may remove the constructions indicated (when you use the DisplayExtraWarnings option).
   *************
   ************* EnergyPlus Warmup Error Summary. During Warmup: 1 Warning; 0 Severe Errors.
   ************* EnergyPlus Sizing Error Summary. During Sizing: 4 Warning; 0 Severe Errors.
   ************* EnergyPlus Completed Successfully-- 184859 Warning; 0 Severe Errors; Elapsed Time=00hr 01min 46.93sec
