Program Version,EnergyPlus, Version 22.2.0-c249759bad, YMD=2023.09.01 20:08,
   ************* Beginning Zone Sizing Calculations
   ** Warning ** ProcessScheduleInput: Schedule:Constant="ALWAYS ON DISCRETE", Schedule Type Limits Name="ONOFF" not found -- will not be validated
   ** Warning ** Foundation:Kiva="KIVA FOUNDATION", no Interior Horizontal Insulation Material Name defined
   **   ~~~   ** Interior Horizontal Insulation Depth will not be used.
   ** Warning ** CheckUsedConstructions: There are 15 nominally unused constructions in input.
   **   ~~~   ** Each Unused construction is shown.
   ************* Construction=INTERIOR FLOOR
   ************* Construction=INTERIOR WINDOW
   ************* Construction=EXTERIOR DOOR
   ************* Construction=INTERIOR DOOR
   ************* Construction=GABLE CONSTRUCTION
   ************* Construction=CRAWL_FLOOR
   ************* Construction=INSULATED PIPE
   ************* Construction=PLAIN PIPE
   ************* Construction=TDD PIPE
   ************* Construction=TDD DOME
   ************* Construction=TDD DIFFUSER
   ************* Construction=CRAWL WALL
   ************* Construction=CEILING-FLOOR-LAYER
   ************* Construction=SLAB CONSTRUCTION W FULL R10 INSULATION
   ************* Construction=SLAB CONSTRUCTION W FULL R5 INSULATION
   ** Warning ** GetDXCoils: Coil:Heating:DX:SingleSpeed="DX_HEATING_COIL" curve values
   **   ~~~   ** ... Defrost Energy Input Ratio Function of Temperature Curve Name = DEFROSTEIR output is not equal to 1.0 (+ or - 10%) at rated conditions.
   **   ~~~   ** ... Curve output at rated conditions = 0.152
   ************* Beginning System Sizing Calculations
   ************* Beginning Plant Sizing Calculations
   ** Warning ** Coil:WaterHeating:AirToWaterHeatPump:Wrapped "HEAT PUMP WATER HEATER EVAPORATOR": Rated air volume flow rate per watt of rated total water heating capacity is out of range
   **   ~~~   ** Min Rated Vol Flow Per Watt=[4.027E-005], Rated Vol Flow Per Watt=[1.510E-004], Max Rated Vol Flow Per Watt=[8.056E-005]. See Input-Output Reference Manual for valid range.
   ************* SizeFan: : Potential issue with equipment sizing for Fan:OnOff HEAT PUMP WATER HEATER FAN
   **   ~~~   ** User-Specified Maximum Flow Rate [m3/s] = 0.22653
   **   ~~~   ** differs from Design Size Maximum Flow Rate [m3/s] = 7.55250E-002
   **   ~~~   ** This may, or may not, indicate mismatched component sizes.
   **   ~~~   ** Verify that the value entered is intended and is consistent with other components.
   ** Warning ** Water heater = WATER HEATER TANK:  Recovery Efficiency and Energy Factor could not be calculated during the test for standard ratings
   **   ~~~   ** Setpoint was never recovered and/or heater never turned on
   ** Warning ** Check input. Pump nominal power or motor efficiency is set to 0, for pump=MAINS PRESSURE
   ** Warning ** Output:Meter: invalid Key Name="ELECTRIC_RANGE:INTERIOREQUIPMENT:ELECTRICITY" - not found.
   ** Warning ** Output:Meter: invalid Key Name="ELECTRIC_DRYER:INTERIOREQUIPMENT:ELECTRICITY" - not found.
   ** Warning ** Output:Meter: invalid Key Name="HEATRECOVERY:ELECTRICITY" - not found.
   ** Warning ** Output:Meter: invalid Key Name="HEATING:NATURALGAS" - not found.
   ** Warning ** Output:Meter: invalid Key Name="WATERSYSTEMS:NATURALGAS" - not found.
   ** Warning ** Output:Meter: invalid Key Name="PROPANE:FACILITY" - not found.
   ** Warning ** Output:Meter: invalid Key Name="HEATING:PROPANE" - not found.
   ************* Testing Individual Branch Integrity
   ************* All Branches passed integrity testing
   ************* Testing Individual Supply Air Path Integrity
   ************* All Supply Air Paths passed integrity testing
   ************* Testing Individual Return Air Path Integrity
   ************* All Return Air Paths passed integrity testing
   ************* No node connection errors were found.
   ************* Beginning Simulation
   ** Warning ** AirflowNetwork::Solver::validate_distribution: Heat pump water heater is simulated along with an AirflowNetwork but is not included in the AirflowNetwork.
   ** Warning ** CalcEquipmentFlowRates: "TOTAL HOT WATER LOAD" - Target water temperature is greater than the hot water temperature by (4.16 C)
   **   ~~~   **  Environment=EXTREME_WINTER, at Simulation time=12/22 07:00 - 07:15
   **   ~~~   ** ...target water temperature     = 53.33 C
   **   ~~~   ** ...hot water temperature        = 49.17 C
   **   ~~~   ** ...Target water temperature should be less than or equal to the hot water temperature. Verify temperature setpoints and schedules.
   ** Warning ** SimHVAC: Maximum iterations (20) exceeded for all HVAC loops, at ANNUAL, 01/19 13:15 - 13:30
   **   ~~~   ** The solution for one or more of the Air Loop HVAC systems did not appear to converge
   **   ~~~   ** Air System Named = CENTRAL SYSTEM did not converge for mass flow rate
   **   ~~~   ** Check values should be zero. Most Recent values listed first.
   **   ~~~   ** Demand-to-Supply interface mass flow rate check value iteration history trace: 6.478132E-002,6.478132E-002,6.478132E-002,6.478132E-002,6.478132E-002,6.478132E-002,6.478132E-002,6.478132E-002,6.478132E-002,6.478132E-002,
   **   ~~~   ** Supply-to-demand interface deck 1 mass flow rate check value iteration history trace: 6.478132E-002,6.478132E-002,6.478132E-002,6.478132E-002,6.478132E-002,6.478132E-002,6.478132E-002,6.478132E-002,6.478132E-002,6.478132E-002,
   **   ~~~   ** Air System Named = CENTRAL SYSTEM did not converge for energy
   **   ~~~   ** Check values should be zero. Most Recent values listed first.
   **   ~~~   ** Demand-to-Supply interface energy check value iteration history trace: 1284.789249,1284.789248,1284.789248,1284.789248,1284.789248,1284.789248,1284.789248,1284.789248,1284.789248,1284.789248,
   **   ~~~   ** Supply-to-demand interface deck 1 energy check value iteration history trace: 2158.076407,2158.076407,2158.076407,2158.076407,2158.076406,2158.076406,2158.076406,2158.076406,2158.076406,2158.076406,
   ** Warning ** SimHVAC: Maximum iterations (20) exceeded for all HVAC loops, at ANNUAL, 01/23 21:08 - 21:15
   **   ~~~   ** The solution for one or more of the Air Loop HVAC systems did not appear to converge
   **   ~~~   ** Air System Named = CENTRAL SYSTEM did not converge for mass flow rate
   **   ~~~   ** Check values should be zero. Most Recent values listed first.
   **   ~~~   ** Demand-to-Supply interface mass flow rate check value iteration history trace: 7.075990E-002,7.075990E-002,7.075990E-002,7.075990E-002,7.075990E-002,7.075990E-002,7.075990E-002,7.075990E-002,7.075990E-002,7.075990E-002,
   **   ~~~   ** Supply-to-demand interface deck 1 mass flow rate check value iteration history trace: 7.075990E-002,7.075990E-002,7.075990E-002,7.075990E-002,7.075990E-002,7.075990E-002,7.075990E-002,7.075990E-002,7.075990E-002,7.075990E-002,
   **   ~~~   ** Air System Named = CENTRAL SYSTEM did not converge for energy
   **   ~~~   ** Check values should be zero. Most Recent values listed first.
   **   ~~~   ** Demand-to-Supply interface energy check value iteration history trace: 1401.369356,1401.369355,1401.369355,1401.369355,1401.369355,1401.369355,1401.369355,1401.369355,1401.369355,1401.369355,
   **   ~~~   ** Supply-to-demand interface deck 1 energy check value iteration history trace: 2386.570381,2386.570381,2386.570381,2386.570381,2386.570381,2386.570381,2386.570381,2386.570381,2386.570381,2386.570380,
   ** Warning ** SimHVAC: Maximum iterations (20) exceeded for all HVAC loops, at ANNUAL, 01/26 23:53 - 24:00
   **   ~~~   ** The solution for one or more of the Air Loop HVAC systems did not appear to converge
   **   ~~~   ** Air System Named = CENTRAL SYSTEM did not converge for mass flow rate
   **   ~~~   ** Check values should be zero. Most Recent values listed first.
   **   ~~~   ** Demand-to-Supply interface mass flow rate check value iteration history trace: 7.930031E-002,7.930031E-002,7.930031E-002,7.930031E-002,7.930031E-002,7.930031E-002,7.930031E-002,7.930031E-002,7.930031E-002,7.930031E-002,
   **   ~~~   ** Supply-to-demand interface deck 1 mass flow rate check value iteration history trace: 7.930031E-002,7.930031E-002,7.930031E-002,7.930031E-002,7.930031E-002,7.930031E-002,7.930031E-002,7.930031E-002,7.930031E-002,7.930031E-002,
   **   ~~~   ** Air System Named = CENTRAL SYSTEM did not converge for energy
   **   ~~~   ** Check values should be zero. Most Recent values listed first.
   **   ~~~   ** Demand-to-Supply interface energy check value iteration history trace: 1478.176558,1478.176558,1478.176558,1478.176558,1478.176558,1478.176558,1478.176558,1478.176558,1478.176558,1478.176558,
   **   ~~~   ** Supply-to-demand interface deck 1 energy check value iteration history trace: 2253.773798,2253.773798,2253.773798,2253.773798,2253.773798,2253.773798,2253.773798,2253.773798,2253.773797,2253.773797,
   ** Warning ** SimHVAC: Maximum iterations (20) exceeded for all HVAC loops, at ANNUAL, 02/02 16:53 - 17:00
   **   ~~~   ** The solution for one or more of the Air Loop HVAC systems did not appear to converge
   **   ~~~   ** Air System Named = CENTRAL SYSTEM did not converge for mass flow rate
   **   ~~~   ** Check values should be zero. Most Recent values listed first.
   **   ~~~   ** Demand-to-Supply interface mass flow rate check value iteration history trace: 6.583346E-002,6.583346E-002,6.583346E-002,6.583346E-002,6.583346E-002,6.583346E-002,6.583346E-002,6.583346E-002,6.583346E-002,6.583346E-002,
   **   ~~~   ** Supply-to-demand interface deck 1 mass flow rate check value iteration history trace: 6.583346E-002,6.583346E-002,6.583346E-002,6.583346E-002,6.583346E-002,6.583346E-002,6.583346E-002,6.583346E-002,6.583346E-002,6.583346E-002,
   **   ~~~   ** Air System Named = CENTRAL SYSTEM did not converge for energy
   **   ~~~   ** Check values should be zero. Most Recent values listed first.
   **   ~~~   ** Demand-to-Supply interface energy check value iteration history trace: 1306.177982,1306.177982,1306.177982,1306.177982,1306.177982,1306.177982,1306.177982,1306.177982,1306.177982,1306.177982,
   **   ~~~   ** Supply-to-demand interface deck 1 energy check value iteration history trace: 2261.996463,2261.996463,2261.996463,2261.996463,2261.996463,2261.996463,2261.996463,2261.996463,2261.996462,2261.996462,
   ** Warning ** SimHVAC: Maximum iterations (20) exceeded for all HVAC loops, at ANNUAL, 02/10 10:45 - 11:00
   **   ~~~   ** The solution for one or more of the Air Loop HVAC systems did not appear to converge
   **   ~~~   ** Air System Named = CENTRAL SYSTEM did not converge for mass flow rate
   **   ~~~   ** Check values should be zero. Most Recent values listed first.
   **   ~~~   ** Demand-to-Supply interface mass flow rate check value iteration history trace: 0.108859,0.108859,0.108859,0.108859,0.108859,0.108859,0.108859,0.108859,0.108859,0.108859,
   **   ~~~   ** Supply-to-demand interface deck 1 mass flow rate check value iteration history trace: 0.108859,0.108859,0.108859,0.108859,0.108859,0.108859,0.108859,0.108859,0.108859,0.108859,
   **   ~~~   ** Air System Named = CENTRAL SYSTEM did not converge for energy
   **   ~~~   ** Check values should be zero. Most Recent values listed first.
   **   ~~~   ** Demand-to-Supply interface energy check value iteration history trace: 2155.194119,2155.194119,2155.194119,2155.194118,2155.194118,2155.194118,2155.194118,2155.194118,2155.194118,2155.194118,
   **   ~~~   ** Supply-to-demand interface deck 1 energy check value iteration history trace: 3210.838790,3210.838790,3210.838789,3210.838789,3210.838789,3210.838789,3210.838789,3210.838788,3210.838788,3210.838788,
   ** Warning ** SimHVAC: Maximum iterations (20) exceeded for all HVAC loops, at ANNUAL, 02/11 10:15 - 10:30
   **   ~~~   ** The solution for one or more of the Air Loop HVAC systems did not appear to converge
   **   ~~~   ** Air System Named = CENTRAL SYSTEM did not converge for mass flow rate
   **   ~~~   ** Check values should be zero. Most Recent values listed first.
   **   ~~~   ** Demand-to-Supply interface mass flow rate check value iteration history trace: 7.156140E-002,7.156140E-002,7.156140E-002,7.156140E-002,7.156140E-002,7.156140E-002,7.156140E-002,7.156140E-002,7.156140E-002,7.156140E-002,
   **   ~~~   ** Supply-to-demand interface deck 1 mass flow rate check value iteration history trace: 7.156140E-002,7.156140E-002,7.156140E-002,7.156140E-002,7.156140E-002,7.156140E-002,7.156140E-002,7.156140E-002,7.156140E-002,7.156140E-002,
   **   ~~~   ** Air System Named = CENTRAL SYSTEM did not converge for energy
   **   ~~~   ** Check values should be zero. Most Recent values listed first.
   **   ~~~   ** Demand-to-Supply interface energy check value iteration history trace: 1410.651888,1410.651888,1410.651888,1410.651888,1410.651888,1410.651888,1410.651888,1410.651888,1410.651888,1410.651888,
   **   ~~~   ** Supply-to-demand interface deck 1 energy check value iteration history trace: 2430.103853,2430.103853,2430.103853,2430.103853,2430.103853,2430.103853,2430.103852,2430.103852,2430.103852,2430.103852,
   ** Warning ** SimHVAC: Maximum iterations (20) exceeded for all HVAC loops, at ANNUAL, 02/12 10:20 - 10:25
   **   ~~~   ** The solution for one or more of the Air Loop HVAC systems did not appear to converge
   **   ~~~   ** Air System Named = CENTRAL SYSTEM did not converge for mass flow rate
   **   ~~~   ** Check values should be zero. Most Recent values listed first.
   **   ~~~   ** Demand-to-Supply interface mass flow rate check value iteration history trace: 7.757700E-002,7.757700E-002,7.757700E-002,7.757700E-002,7.757700E-002,7.757700E-002,7.757700E-002,7.757700E-002,7.757700E-002,7.757700E-002,
   **   ~~~   ** Supply-to-demand interface deck 1 mass flow rate check value iteration history trace: 7.757700E-002,7.757700E-002,7.757700E-002,7.757700E-002,7.757700E-002,7.757700E-002,7.757700E-002,7.757700E-002,7.757700E-002,7.757700E-002,
   **   ~~~   ** Air System Named = CENTRAL SYSTEM did not converge for energy
   **   ~~~   ** Check values should be zero. Most Recent values listed first.
   **   ~~~   ** Demand-to-Supply interface energy check value iteration history trace: 1528.270858,1528.270858,1528.270858,1528.270858,1528.270858,1528.270858,1528.270858,1528.270858,1528.270858,1528.270858,
   **   ~~~   ** Supply-to-demand interface deck 1 energy check value iteration history trace: 2680.055058,2680.055057,2680.055057,2680.055057,2680.055057,2680.055057,2680.055057,2680.055057,2680.055057,2680.055057,
   ** Warning ** SimHVAC: Maximum iterations (20) exceeded for all HVAC loops, at ANNUAL, 03/04 11:08 - 11:15
   **   ~~~   ** The solution for one or more of the Air Loop HVAC systems did not appear to converge
   **   ~~~   ** Air System Named = CENTRAL SYSTEM did not converge for mass flow rate
   **   ~~~   ** Check values should be zero. Most Recent values listed first.
   **   ~~~   ** Demand-to-Supply interface mass flow rate check value iteration history trace: 5.090628E-002,5.090628E-002,5.090628E-002,5.090628E-002,5.090628E-002,5.090628E-002,5.090628E-002,5.090628E-002,5.090628E-002,5.090628E-002,
   **   ~~~   ** Supply-to-demand interface deck 1 mass flow rate check value iteration history trace: 5.090628E-002,5.090628E-002,5.090628E-002,5.090628E-002,5.090628E-002,5.090628E-002,5.090628E-002,5.090628E-002,5.090628E-002,5.090628E-002,
   **   ~~~   ** Air System Named = CENTRAL SYSTEM did not converge for energy
   **   ~~~   ** Check values should be zero. Most Recent values listed first.
   **   ~~~   ** Demand-to-Supply interface energy check value iteration history trace: 1001.044890,1001.044890,1001.044890,1001.044890,1001.044890,1001.044890,1001.044890,1001.044890,1001.044890,1001.044890,
   **   ~~~   ** Supply-to-demand interface deck 1 energy check value iteration history trace: 1812.271164,1812.271164,1812.271164,1812.271164,1812.271164,1812.271164,1812.271164,1812.271164,1812.271163,1812.271163,
   ** Warning ** SimHVAC: Maximum iterations (20) exceeded for all HVAC loops, at ANNUAL, 03/13 03:45 - 04:00
   **   ~~~   ** The solution for one or more of the Air Loop HVAC systems did not appear to converge
   **   ~~~   ** Air System Named = CENTRAL SYSTEM did not converge for mass flow rate
   **   ~~~   ** Check values should be zero. Most Recent values listed first.
   **   ~~~   ** Demand-to-Supply interface mass flow rate check value iteration history trace: 6.799074E-002,6.799074E-002,6.799074E-002,6.799074E-002,6.799074E-002,6.799074E-002,6.799074E-002,6.799074E-002,6.799074E-002,6.799074E-002,
   **   ~~~   ** Supply-to-demand interface deck 1 mass flow rate check value iteration history trace: 6.799074E-002,6.799074E-002,6.799074E-002,6.799074E-002,6.799074E-002,6.799074E-002,6.799074E-002,6.799074E-002,6.799074E-002,6.799074E-002,
   **   ~~~   ** Air System Named = CENTRAL SYSTEM did not converge for energy
   **   ~~~   ** Check values should be zero. Most Recent values listed first.
   **   ~~~   ** Demand-to-Supply interface energy check value iteration history trace: 1264.603634,1264.603634,1264.603634,1264.603634,1264.603634,1264.603634,1264.603634,1264.603634,1264.603634,1264.603633,
   **   ~~~   ** Supply-to-demand interface deck 1 energy check value iteration history trace: 1942.932900,1942.932900,1942.932900,1942.932900,1942.932900,1942.932900,1942.932900,1942.932899,1942.932899,1942.932899,
   ** Warning ** SimHVAC: Maximum iterations (20) exceeded for all HVAC loops, at ANNUAL, 03/19 11:15 - 11:19
   **   ~~~   ** The solution for one or more of the Air Loop HVAC systems did not appear to converge
   **   ~~~   ** Air System Named = CENTRAL SYSTEM did not converge for mass flow rate
   **   ~~~   ** Check values should be zero. Most Recent values listed first.
   **   ~~~   ** Demand-to-Supply interface mass flow rate check value iteration history trace: 6.359020E-002,6.359020E-002,6.359020E-002,6.359020E-002,6.359020E-002,6.359020E-002,6.359020E-002,6.359020E-002,6.359020E-002,6.359020E-002,
   **   ~~~   ** Supply-to-demand interface deck 1 mass flow rate check value iteration history trace: 6.359020E-002,6.359020E-002,6.359020E-002,6.359020E-002,6.359020E-002,6.359020E-002,6.359020E-002,6.359020E-002,6.359020E-002,6.359020E-002,
   **   ~~~   ** Air System Named = CENTRAL SYSTEM did not converge for energy
   **   ~~~   ** Check values should be zero. Most Recent values listed first.
   **   ~~~   ** Demand-to-Supply interface energy check value iteration history trace: 1260.117774,1260.117774,1260.117774,1260.117774,1260.117774,1260.117774,1260.117774,1260.117774,1260.117774,1260.117774,
   **   ~~~   ** Supply-to-demand interface deck 1 energy check value iteration history trace: 2205.917676,2205.917676,2205.917676,2205.917676,2205.917676,2205.917676,2205.917676,2205.917676,2205.917675,2205.917675,
   ** Warning ** SimHVAC: Maximum iterations (20) exceeded for all HVAC loops, at ANNUAL, 03/19 21:53 - 22:00
   **   ~~~   ** The solution for one or more of the Air Loop HVAC systems did not appear to converge
   **   ~~~   ** Air System Named = CENTRAL SYSTEM did not converge for mass flow rate
   **   ~~~   ** Check values should be zero. Most Recent values listed first.
   **   ~~~   ** Demand-to-Supply interface mass flow rate check value iteration history trace: 9.294845E-002,9.294845E-002,9.294845E-002,9.294845E-002,9.294845E-002,9.294845E-002,9.294845E-002,9.294845E-002,9.294845E-002,9.294845E-002,
   **   ~~~   ** Supply-to-demand interface deck 1 mass flow rate check value iteration history trace: 9.294845E-002,9.294845E-002,9.294845E-002,9.294845E-002,9.294845E-002,9.294845E-002,9.294845E-002,9.294845E-002,9.294845E-002,9.294845E-002,
   **   ~~~   ** Air System Named = CENTRAL SYSTEM did not converge for energy
   **   ~~~   ** Check values should be zero. Most Recent values listed first.
   **   ~~~   ** Demand-to-Supply interface energy check value iteration history trace: 1840.063315,1840.063315,1840.063314,1840.063314,1840.063314,1840.063314,1840.063314,1840.063314,1840.063314,1840.063314,
   **   ~~~   ** Supply-to-demand interface deck 1 energy check value iteration history trace: 2799.911965,2799.911964,2799.911964,2799.911964,2799.911964,2799.911964,2799.911963,2799.911963,2799.911963,2799.911963,
   ** Warning ** SimHVAC: Maximum iterations (20) exceeded for all HVAC loops, at ANNUAL, 03/22 08:32 - 08:34
   **   ~~~   ** The solution for one or more of the Air Loop HVAC systems did not appear to converge
   **   ~~~   ** Air System Named = CENTRAL SYSTEM did not converge for mass flow rate
   **   ~~~   ** Check values should be zero. Most Recent values listed first.
   **   ~~~   ** Demand-to-Supply interface mass flow rate check value iteration history trace: 9.459399E-002,9.459399E-002,9.459399E-002,9.459399E-002,9.459399E-002,9.459399E-002,9.459399E-002,9.459399E-002,9.459399E-002,9.459399E-002,
   **   ~~~   ** Supply-to-demand interface deck 1 mass flow rate check value iteration history trace: 9.459399E-002,9.459399E-002,9.459399E-002,9.459399E-002,9.459399E-002,9.459399E-002,9.459399E-002,9.459399E-002,9.459399E-002,9.459399E-002,
   **   ~~~   ** Air System Named = CENTRAL SYSTEM did not converge for energy
   **   ~~~   ** Check values should be zero. Most Recent values listed first.
   **   ~~~   ** Demand-to-Supply interface energy check value iteration history trace: 1874.652949,1874.652949,1874.652949,1874.652949,1874.652949,1874.652949,1874.652949,1874.652949,1874.652948,1874.652948,
   **   ~~~   ** Supply-to-demand interface deck 1 energy check value iteration history trace: 2877.568209,2877.568209,2877.568208,2877.568208,2877.568208,2877.568208,2877.568208,2877.568207,2877.568207,2877.568207,
   ** Warning ** SimHVAC: Maximum iterations (20) exceeded for all HVAC loops, at ANNUAL, 04/03 09:15 - 09:18
   **   ~~~   ** The solution for one or more of the Air Loop HVAC systems did not appear to converge
   **   ~~~   ** Air System Named = CENTRAL SYSTEM did not converge for mass flow rate
   **   ~~~   ** Check values should be zero. Most Recent values listed first.
   **   ~~~   ** Demand-to-Supply interface mass flow rate check value iteration history trace: 6.656179E-002,6.656179E-002,6.656179E-002,6.656179E-002,6.656179E-002,6.656179E-002,6.656179E-002,6.656179E-002,6.656179E-002,6.656179E-002,
   **   ~~~   ** Supply-to-demand interface deck 1 mass flow rate check value iteration history trace: 6.656179E-002,6.656179E-002,6.656179E-002,6.656179E-002,6.656179E-002,6.656179E-002,6.656179E-002,6.656179E-002,6.656179E-002,6.656179E-002,
   **   ~~~   ** Air System Named = CENTRAL SYSTEM did not converge for energy
   **   ~~~   ** Check values should be zero. Most Recent values listed first.
   **   ~~~   ** Demand-to-Supply interface energy check value iteration history trace: 1315.606334,1315.606334,1315.606334,1315.606334,1315.606334,1315.606334,1315.606334,1315.606334,1315.606334,1315.606334,
   **   ~~~   ** Supply-to-demand interface deck 1 energy check value iteration history trace: 2293.957435,2293.957435,2293.957435,2293.957435,2293.957435,2293.957435,2293.957435,2293.957435,2293.957434,2293.957434,
   ** Warning ** SimHVAC: Maximum iterations (20) exceeded for all HVAC loops, at ANNUAL, 04/05 09:45 - 10:00
   **   ~~~   ** The solution for one or more of the Air Loop HVAC systems did not appear to converge
   **   ~~~   ** Air System Named = CENTRAL SYSTEM did not converge for mass flow rate
   **   ~~~   ** Check values should be zero. Most Recent values listed first.
   **   ~~~   ** Demand-to-Supply interface mass flow rate check value iteration history trace: 5.786984E-002,5.786984E-002,5.786984E-002,5.786984E-002,5.786984E-002,5.786984E-002,5.786984E-002,5.786984E-002,5.786984E-002,5.786984E-002,
   **   ~~~   ** Supply-to-demand interface deck 1 mass flow rate check value iteration history trace: 5.786984E-002,5.786984E-002,5.786984E-002,5.786984E-002,5.786984E-002,5.786984E-002,5.786984E-002,5.786984E-002,5.786984E-002,5.786984E-002,
   **   ~~~   ** Air System Named = CENTRAL SYSTEM did not converge for energy
   **   ~~~   ** Check values should be zero. Most Recent values listed first.
   **   ~~~   ** Demand-to-Supply interface energy check value iteration history trace: 1135.194242,1135.194242,1135.194242,1135.194242,1135.194242,1135.194242,1135.194242,1135.194242,1135.194242,1135.194242,
   **   ~~~   ** Supply-to-demand interface deck 1 energy check value iteration history trace: 2089.894816,2089.894816,2089.894816,2089.894815,2089.894815,2089.894815,2089.894815,2089.894815,2089.894815,2089.894815,
   ************* Simulation Error Summary *************
   ** Warning ** The following Report Variables were requested but not generated -- check.rdd file
   **   ~~~   ** Either the IDF did not contain these elements, the variable name is misspelled,
   **   ~~~   ** or the requested variable is an advanced output which requires Output : Diagnostics, DisplayAdvancedReportVariables;
   ************* Key=*, VarName=BASEBOARD TOTAL HEATING ENERGY, Frequency=
   ************* Key=*, VarName=WATER HEATER NATURALGAS ENERGY, Frequency=
   ************* Key=*, VarName=COOLING COIL TOTAL HEATING ENERGY, Frequency=
   ************* There are 34 unused schedules in input.
   ************* There are 388 unused week schedules in input.
   ************* There are 396 unused day schedules in input.
   ************* Use Output:Diagnostics,DisplayUnusedSchedules; to see them.
   *************
   ************* ===== Recurring Error Summary =====
   ************* The following recurring error messages occurred.
   *************
   *************  ** Warning ** "TOTAL HOT WATER LOAD" - Target water temperature should be less than or equal to the hot water temperature error continues...
   *************  **   ~~~   **   This error occurred 146847 total times;
   *************  **   ~~~   **   during Warmup 0 times;
   *************  **   ~~~   **   during Sizing 0 times.
   *************  **   ~~~   **   Max=12.582585  Min=1.217119E-003
   *************
   *************  ** Warning ** SimHVAC: Exceeding Maximum iterations for all HVAC loops, during ANNUAL continues
   *************  **   ~~~   **   This error occurred 18 total times;
   *************  **   ~~~   **   during Warmup 0 times;
   *************  **   ~~~   **   during Sizing 0 times.
   *************
   *************
   ************* ===== Final Error Summary =====
   ************* The following error categories occurred.  Consider correcting or noting.
   ************* Nominally Unused Constructions
   ************* ..The nominally unused constructions warning is provided to alert you to potential conditions that can cause
   ************* ..extra time during simulation. Each construction is calculated by the algorithm indicated in the HeatBalanceAlgorithm
   ************* ..object. You may remove the constructions indicated (when you use the DisplayExtraWarnings option).
   *************
   ************* EnergyPlus Warmup Error Summary. During Warmup: 1 Warning; 0 Severe Errors.
   ************* EnergyPlus Sizing Error Summary. During Sizing: 4 Warning; 0 Severe Errors.
   ************* EnergyPlus Completed Successfully-- 146896 Warning; 0 Severe Errors; Elapsed Time=00hr 01min 28.04sec
