Program Version,EnergyPlus, Version 22.2.0-c249759bad, YMD=2023.09.01 19:54,
   ************* Beginning Zone Sizing Calculations
   ** Warning ** ProcessScheduleInput: Schedule:Constant="ALWAYS ON DISCRETE", Schedule Type Limits Name="ONOFF" not found -- will not be validated
   ** Warning ** Foundation:Kiva="KIVA FOUNDATION", no Interior Horizontal Insulation Material Name defined
   **   ~~~   ** Interior Horizontal Insulation Depth will not be used.
   ** Warning ** CheckUsedConstructions: There are 15 nominally unused constructions in input.
   **   ~~~   ** Each Unused construction is shown.
   ************* Construction=INTERIOR FLOOR
   ************* Construction=INTERIOR WINDOW
   ************* Construction=EXTERIOR DOOR
   ************* Construction=INTERIOR DOOR
   ************* Construction=GABLE CONSTRUCTION
   ************* Construction=CRAWL_FLOOR
   ************* Construction=INSULATED PIPE
   ************* Construction=PLAIN PIPE
   ************* Construction=TDD PIPE
   ************* Construction=TDD DOME
   ************* Construction=TDD DIFFUSER
   ************* Construction=CRAWL WALL
   ************* Construction=CEILING-FLOOR-LAYER
   ************* Construction=SLAB CONSTRUCTION W FULL R10 INSULATION
   ************* Construction=SLAB CONSTRUCTION W FULL R5 INSULATION
   ** Warning ** GetDXCoils: Coil:Heating:DX:SingleSpeed="DX_HEATING_COIL" curve values
   **   ~~~   ** ... Defrost Energy Input Ratio Function of Temperature Curve Name = DEFROSTEIR output is not equal to 1.0 (+ or - 10%) at rated conditions.
   **   ~~~   ** ... Curve output at rated conditions = 0.152
   ************* Beginning System Sizing Calculations
   ************* Beginning Plant Sizing Calculations
   ** Warning ** Coil:WaterHeating:AirToWaterHeatPump:Wrapped "HEAT PUMP WATER HEATER EVAPORATOR": Rated air volume flow rate per watt of rated total water heating capacity is out of range
   **   ~~~   ** Min Rated Vol Flow Per Watt=[4.027E-005], Rated Vol Flow Per Watt=[1.510E-004], Max Rated Vol Flow Per Watt=[8.056E-005]. See Input-Output Reference Manual for valid range.
   ************* SizeFan: : Potential issue with equipment sizing for Fan:OnOff HEAT PUMP WATER HEATER FAN
   **   ~~~   ** User-Specified Maximum Flow Rate [m3/s] = 0.22653
   **   ~~~   ** differs from Design Size Maximum Flow Rate [m3/s] = 7.55250E-002
   **   ~~~   ** This may, or may not, indicate mismatched component sizes.
   **   ~~~   ** Verify that the value entered is intended and is consistent with other components.
   ** Warning ** Water heater = WATER HEATER TANK:  Recovery Efficiency and Energy Factor could not be calculated during the test for standard ratings
   **   ~~~   ** Setpoint was never recovered and/or heater never turned on
   ** Warning ** Check input. Pump nominal power or motor efficiency is set to 0, for pump=MAINS PRESSURE
   ** Warning ** AirflowNetwork::Solver::validate_distribution: Heat pump water heater is simulated along with an AirflowNetwork but is not included in the AirflowNetwork.
   ** Warning ** Output:Meter: invalid Key Name="ELECTRIC_RANGE:INTERIOREQUIPMENT:ELECTRICITY" - not found.
   ** Warning ** Output:Meter: invalid Key Name="ELECTRIC_DRYER:INTERIOREQUIPMENT:ELECTRICITY" - not found.
   ** Warning ** Output:Meter: invalid Key Name="HEATRECOVERY:ELECTRICITY" - not found.
   ** Warning ** Output:Meter: invalid Key Name="HEATING:NATURALGAS" - not found.
   ** Warning ** Output:Meter: invalid Key Name="WATERSYSTEMS:NATURALGAS" - not found.
   ** Warning ** Output:Meter: invalid Key Name="PROPANE:FACILITY" - not found.
   ** Warning ** Output:Meter: invalid Key Name="HEATING:PROPANE" - not found.
   ************* Testing Individual Branch Integrity
   ************* All Branches passed integrity testing
   ************* Testing Individual Supply Air Path Integrity
   ************* All Supply Air Paths passed integrity testing
   ************* Testing Individual Return Air Path Integrity
   ************* All Return Air Paths passed integrity testing
   ************* No node connection errors were found.
   ************* Beginning Simulation
   ** Warning ** CalcEquipmentFlowRates: "TOTAL HOT WATER LOAD" - Target water temperature is greater than the hot water temperature by (5.82 C)
   **   ~~~   **  Environment=EXTREME_WINTER, at Simulation time=01/08 06:00 - 06:15
   **   ~~~   ** ...target water temperature     = 53.33 C
   **   ~~~   ** ...hot water temperature        = 47.51 C
   **   ~~~   ** ...Target water temperature should be less than or equal to the hot water temperature. Verify temperature setpoints and schedules.
   ** Warning ** SimHVAC: Maximum iterations (20) exceeded for all HVAC loops, at ANNUAL, 01/24 13:53 - 14:00
   **   ~~~   ** The solution for one or more of the Air Loop HVAC systems did not appear to converge
   **   ~~~   ** Air System Named = CENTRAL SYSTEM did not converge for mass flow rate
   **   ~~~   ** Check values should be zero. Most Recent values listed first.
   **   ~~~   ** Demand-to-Supply interface mass flow rate check value iteration history trace: 9.172498E-002,9.172498E-002,9.172498E-002,9.172498E-002,9.172498E-002,9.172498E-002,9.172498E-002,9.172498E-002,9.172498E-002,9.172498E-002,
   **   ~~~   ** Supply-to-demand interface deck 1 mass flow rate check value iteration history trace: 9.172498E-002,9.172498E-002,9.172498E-002,9.172498E-002,9.172498E-002,9.172498E-002,9.172498E-002,9.172498E-002,9.172498E-002,9.172498E-002,
   **   ~~~   ** Air System Named = CENTRAL SYSTEM did not converge for energy
   **   ~~~   ** Check values should be zero. Most Recent values listed first.
   **   ~~~   ** Demand-to-Supply interface energy check value iteration history trace: 1817.030546,1817.030546,1817.030546,1817.030546,1817.030546,1817.030546,1817.030546,1817.030545,1817.030545,1817.030545,
   **   ~~~   ** Supply-to-demand interface deck 1 energy check value iteration history trace: 2846.535034,2846.535034,2846.535034,2846.535034,2846.535034,2846.535033,2846.535033,2846.535033,2846.535033,2846.535033,
   ** Warning ** SimHVAC: Maximum iterations (20) exceeded for all HVAC loops, at ANNUAL, 01/27 12:25 - 12:30
   **   ~~~   ** The solution for one or more of the Air Loop HVAC systems did not appear to converge
   **   ~~~   ** Air System Named = CENTRAL SYSTEM did not converge for mass flow rate
   **   ~~~   ** Check values should be zero. Most Recent values listed first.
   **   ~~~   ** Demand-to-Supply interface mass flow rate check value iteration history trace: 7.082721E-002,7.082721E-002,7.082721E-002,7.082721E-002,7.082721E-002,7.082721E-002,7.082721E-002,7.082721E-002,7.082721E-002,7.082721E-002,
   **   ~~~   ** Supply-to-demand interface deck 1 mass flow rate check value iteration history trace: 7.082721E-002,7.082721E-002,7.082721E-002,7.082721E-002,7.082721E-002,7.082721E-002,7.082721E-002,7.082721E-002,7.082721E-002,7.082721E-002,
   **   ~~~   ** Air System Named = CENTRAL SYSTEM did not converge for energy
   **   ~~~   ** Check values should be zero. Most Recent values listed first.
   **   ~~~   ** Demand-to-Supply interface energy check value iteration history trace: 1403.549322,1403.549322,1403.549322,1403.549321,1403.549321,1403.549321,1403.549321,1403.549321,1403.549321,1403.549321,
   **   ~~~   ** Supply-to-demand interface deck 1 energy check value iteration history trace: 2125.525700,2125.525700,2125.525700,2125.525700,2125.525700,2125.525700,2125.525699,2125.525699,2125.525699,2125.525699,
   ** Warning ** SimHVAC: Maximum iterations (20) exceeded for all HVAC loops, at ANNUAL, 01/27 12:30 - 12:45
   **   ~~~   ** The solution for one or more of the Air Loop HVAC systems did not appear to converge
   **   ~~~   ** Air System Named = CENTRAL SYSTEM did not converge for mass flow rate
   **   ~~~   ** Check values should be zero. Most Recent values listed first.
   **   ~~~   ** Demand-to-Supply interface mass flow rate check value iteration history trace: 4.729159E-002,4.729159E-002,4.729159E-002,4.729159E-002,4.729159E-002,4.729159E-002,4.729159E-002,4.729159E-002,4.729159E-002,4.729159E-002,
   **   ~~~   ** Supply-to-demand interface deck 1 mass flow rate check value iteration history trace: 4.729159E-002,4.729159E-002,4.729159E-002,4.729159E-002,4.729159E-002,4.729159E-002,4.729159E-002,4.729159E-002,4.729159E-002,4.729159E-002,
   **   ~~~   ** Air System Named = CENTRAL SYSTEM did not converge for energy
   **   ~~~   ** Check values should be zero. Most Recent values listed first.
   **   ~~~   ** Demand-to-Supply interface energy check value iteration history trace: 928.904720,928.904720,928.904720,928.904720,928.904720,928.904720,928.904720,928.904720,928.904720,928.904720,
   **   ~~~   ** Supply-to-demand interface deck 1 energy check value iteration history trace: 1411.498255,1411.498255,1411.498255,1411.498255,1411.498254,1411.498254,1411.498254,1411.498254,1411.498254,1411.498254,
   ** Warning ** SimHVAC: Maximum iterations (20) exceeded for all HVAC loops, at ANNUAL, 03/05 12:15 - 12:22
   **   ~~~   ** The solution for one or more of the Air Loop HVAC systems did not appear to converge
   **   ~~~   ** Air System Named = CENTRAL SYSTEM did not converge for mass flow rate
   **   ~~~   ** Check values should be zero. Most Recent values listed first.
   **   ~~~   ** Demand-to-Supply interface mass flow rate check value iteration history trace: 6.295627E-002,6.295627E-002,6.295627E-002,6.295627E-002,6.295627E-002,6.295627E-002,6.295627E-002,6.295627E-002,6.295627E-002,6.295627E-002,
   **   ~~~   ** Supply-to-demand interface deck 1 mass flow rate check value iteration history trace: 6.295627E-002,6.295627E-002,6.295627E-002,6.295627E-002,6.295627E-002,6.295627E-002,6.295627E-002,6.295627E-002,6.295627E-002,6.295627E-002,
   **   ~~~   ** Air System Named = CENTRAL SYSTEM did not converge for energy
   **   ~~~   ** Check values should be zero. Most Recent values listed first.
   **   ~~~   ** Demand-to-Supply interface energy check value iteration history trace: 1247.553996,1247.553996,1247.553996,1247.553996,1247.553996,1247.553996,1247.553996,1247.553996,1247.553995,1247.553995,
   **   ~~~   ** Supply-to-demand interface deck 1 energy check value iteration history trace: 2247.126683,2247.126683,2247.126683,2247.126682,2247.126682,2247.126682,2247.126682,2247.126682,2247.126682,2247.126682,
   ** Warning ** SimHVAC: Maximum iterations (20) exceeded for all HVAC loops, at ANNUAL, 03/18 07:15 - 07:30
   **   ~~~   ** The solution for one or more of the Air Loop HVAC systems did not appear to converge
   **   ~~~   ** Air System Named = CENTRAL SYSTEM did not converge for mass flow rate
   **   ~~~   ** Check values should be zero. Most Recent values listed first.
   **   ~~~   ** Demand-to-Supply interface mass flow rate check value iteration history trace: 6.255489E-002,6.255489E-002,6.255489E-002,6.255489E-002,6.255489E-002,6.255489E-002,6.255489E-002,6.255489E-002,6.255489E-002,6.255489E-002,
   **   ~~~   ** Supply-to-demand interface deck 1 mass flow rate check value iteration history trace: 6.255489E-002,6.255489E-002,6.255489E-002,6.255489E-002,6.255489E-002,6.255489E-002,6.255489E-002,6.255489E-002,6.255489E-002,6.255489E-002,
   **   ~~~   ** Air System Named = CENTRAL SYSTEM did not converge for energy
   **   ~~~   ** Check values should be zero. Most Recent values listed first.
   **   ~~~   ** Demand-to-Supply interface energy check value iteration history trace: 1239.508645,1239.508645,1239.508645,1239.508645,1239.508645,1239.508645,1239.508645,1239.508645,1239.508645,1239.508645,
   **   ~~~   ** Supply-to-demand interface deck 1 energy check value iteration history trace: 2146.765115,2146.765115,2146.765115,2146.765115,2146.765114,2146.765114,2146.765114,2146.765114,2146.765114,2146.765114,
   ** Warning ** SimHVAC: Maximum iterations (20) exceeded for all HVAC loops, at ANNUAL, 03/26 12:53 - 13:00
   **   ~~~   ** The solution for one or more of the Air Loop HVAC systems did not appear to converge
   **   ~~~   ** Air System Named = CENTRAL SYSTEM did not converge for mass flow rate
   **   ~~~   ** Check values should be zero. Most Recent values listed first.
   **   ~~~   ** Demand-to-Supply interface mass flow rate check value iteration history trace: 5.896972E-002,5.896972E-002,5.896972E-002,5.896972E-002,5.896972E-002,5.896972E-002,5.896972E-002,5.896972E-002,5.896972E-002,5.896972E-002,
   **   ~~~   ** Supply-to-demand interface deck 1 mass flow rate check value iteration history trace: 5.896972E-002,5.896972E-002,5.896972E-002,5.896972E-002,5.896972E-002,5.896972E-002,5.896972E-002,5.896972E-002,5.896972E-002,5.896972E-002,
   **   ~~~   ** Air System Named = CENTRAL SYSTEM did not converge for energy
   **   ~~~   ** Check values should be zero. Most Recent values listed first.
   **   ~~~   ** Demand-to-Supply interface energy check value iteration history trace: 1159.323876,1159.323876,1159.323876,1159.323876,1159.323876,1159.323876,1159.323876,1159.323876,1159.323876,1159.323875,
   **   ~~~   ** Supply-to-demand interface deck 1 energy check value iteration history trace: 2107.765236,2107.765236,2107.765235,2107.765235,2107.765235,2107.765235,2107.765235,2107.765235,2107.765235,2107.765235,
   ** Warning ** SimHVAC: Maximum iterations (20) exceeded for all HVAC loops, at ANNUAL, 04/12 09:15 - 09:22
   **   ~~~   ** The solution for one or more of the Air Loop HVAC systems did not appear to converge
   **   ~~~   ** Air System Named = CENTRAL SYSTEM did not converge for mass flow rate
   **   ~~~   ** Check values should be zero. Most Recent values listed first.
   **   ~~~   ** Demand-to-Supply interface mass flow rate check value iteration history trace: 5.756555E-002,5.756555E-002,5.756555E-002,5.756555E-002,5.756555E-002,5.756555E-002,5.756555E-002,5.756555E-002,5.756555E-002,5.756555E-002,
   **   ~~~   ** Supply-to-demand interface deck 1 mass flow rate check value iteration history trace: 5.756555E-002,5.756555E-002,5.756555E-002,5.756555E-002,5.756555E-002,5.756555E-002,5.756555E-002,5.756555E-002,5.756555E-002,5.756555E-002,
   **   ~~~   ** Air System Named = CENTRAL SYSTEM did not converge for energy
   **   ~~~   ** Check values should be zero. Most Recent values listed first.
   **   ~~~   ** Demand-to-Supply interface energy check value iteration history trace: 1136.906704,1136.906704,1136.906704,1136.906704,1136.906704,1136.906704,1136.906704,1136.906704,1136.906704,1136.906704,
   **   ~~~   ** Supply-to-demand interface deck 1 energy check value iteration history trace: 2025.463454,2025.463454,2025.463454,2025.463454,2025.463454,2025.463454,2025.463454,2025.463454,2025.463454,2025.463454,
   ** Warning ** SimHVAC: Maximum iterations (20) exceeded for all HVAC loops, at ANNUAL, 04/21 07:38 - 07:41
   **   ~~~   ** The solution for one or more of the Air Loop HVAC systems did not appear to converge
   **   ~~~   ** Air System Named = CENTRAL SYSTEM did not converge for mass flow rate
   **   ~~~   ** Check values should be zero. Most Recent values listed first.
   **   ~~~   ** Demand-to-Supply interface mass flow rate check value iteration history trace: 6.528534E-002,6.528534E-002,6.528534E-002,6.528534E-002,6.528534E-002,6.528534E-002,6.528534E-002,6.528534E-002,6.528534E-002,6.528534E-002,
   **   ~~~   ** Supply-to-demand interface deck 1 mass flow rate check value iteration history trace: 6.528534E-002,6.528534E-002,6.528534E-002,6.528534E-002,6.528534E-002,6.528534E-002,6.528534E-002,6.528534E-002,6.528534E-002,6.528534E-002,
   **   ~~~   ** Air System Named = CENTRAL SYSTEM did not converge for energy
   **   ~~~   ** Check values should be zero. Most Recent values listed first.
   **   ~~~   ** Demand-to-Supply interface energy check value iteration history trace: 1291.157967,1291.157967,1291.157967,1291.157967,1291.157967,1291.157967,1291.157967,1291.157967,1291.157967,1291.157966,
   **   ~~~   ** Supply-to-demand interface deck 1 energy check value iteration history trace: 2314.033860,2314.033860,2314.033860,2314.033860,2314.033860,2314.033860,2314.033860,2314.033860,2314.033859,2314.033859,
   ** Warning ** SimHVAC: Maximum iterations (20) exceeded for all HVAC loops, at ANNUAL, 05/04 06:15 - 06:30
   **   ~~~   ** The solution for one or more of the Air Loop HVAC systems did not appear to converge
   **   ~~~   ** Air System Named = CENTRAL SYSTEM did not converge for mass flow rate
   **   ~~~   ** Check values should be zero. Most Recent values listed first.
   **   ~~~   ** Demand-to-Supply interface mass flow rate check value iteration history trace: 7.160286E-002,7.160286E-002,7.160286E-002,7.160286E-002,7.160286E-002,7.160286E-002,7.160286E-002,7.160286E-002,7.160286E-002,7.160286E-002,
   **   ~~~   ** Supply-to-demand interface deck 1 mass flow rate check value iteration history trace: 7.160286E-002,7.160286E-002,7.160286E-002,7.160286E-002,7.160286E-002,7.160286E-002,7.160286E-002,7.160286E-002,7.160286E-002,7.160286E-002,
   **   ~~~   ** Air System Named = CENTRAL SYSTEM did not converge for energy
   **   ~~~   ** Check values should be zero. Most Recent values listed first.
   **   ~~~   ** Demand-to-Supply interface energy check value iteration history trace: 1418.788906,1418.788906,1418.788906,1418.788906,1418.788905,1418.788905,1418.788905,1418.788905,1418.788905,1418.788904,
   **   ~~~   ** Supply-to-demand interface deck 1 energy check value iteration history trace: 2494.532764,2494.532763,2494.532763,2494.532762,2494.532762,2494.532762,2494.532761,2494.532761,2494.532761,2494.532760,
   **   ~~~   ** Node named ZONE INLET NODE shows oscillating temperatures across iterations with a repeated value of 34.670511
   **   ~~~   ** Node named ZONE INLET NODE temperature [C] iteration history trace (most recent first): 34.670511,34.670511,34.670511,34.670510,34.670510,34.670510,34.670510,34.670510,34.670509,34.670509,
   ** Warning ** SimHVAC: Maximum iterations (20) exceeded for all HVAC loops, at ANNUAL, 06/12 09:40 - 09:45
   **   ~~~   ** The solution for one or more of the Air Loop HVAC systems did not appear to converge
   **   ~~~   ** Air System Named = CENTRAL SYSTEM did not converge for mass flow rate
   **   ~~~   ** Check values should be zero. Most Recent values listed first.
   **   ~~~   ** Demand-to-Supply interface mass flow rate check value iteration history trace: 0.163504,0.163504,0.163504,0.163504,0.163504,0.163504,0.163504,0.163504,0.163504,0.163504,
   **   ~~~   ** Supply-to-demand interface deck 1 mass flow rate check value iteration history trace: 0.163504,0.163504,0.163504,0.163504,0.163504,0.163504,0.163504,0.163504,0.163504,0.163504,
   **   ~~~   ** Air System Named = CENTRAL SYSTEM did not converge for energy
   **   ~~~   ** Check values should be zero. Most Recent values listed first.
   **   ~~~   ** Demand-to-Supply interface energy check value iteration history trace: 3904.938062,3904.938063,3904.938064,3904.938064,3904.938065,3904.938066,3904.938066,3904.938067,3904.938068,3904.938068,
   **   ~~~   ** Supply-to-demand interface deck 1 energy check value iteration history trace: 1999.864216,1999.864217,1999.864217,1999.864217,1999.864218,1999.864218,1999.864218,1999.864219,1999.864219,1999.864219,
   ** Warning ** SimHVAC: Maximum iterations (20) exceeded for all HVAC loops, at ANNUAL, 06/14 09:00 - 09:15
   **   ~~~   ** The solution for one or more of the Air Loop HVAC systems did not appear to converge
   **   ~~~   ** Air System Named = CENTRAL SYSTEM did not converge for energy
   **   ~~~   ** Check values should be zero. Most Recent values listed first.
   **   ~~~   ** Demand-to-Supply interface energy check value iteration history trace: 130.540285,130.540286,130.540286,130.540286,130.540286,130.540286,130.540286,130.540286,130.540286,130.540286,
   **   ~~~   ** Supply-to-demand interface deck 1 energy check value iteration history trace: 68.384752,68.384752,68.384752,68.384752,68.384752,68.384752,68.384752,68.384752,68.384752,68.384752,
   ** Warning ** SimHVAC: Maximum iterations (20) exceeded for all HVAC loops, at ANNUAL, 06/18 00:08 - 00:15
   **   ~~~   ** The solution for one or more of the Air Loop HVAC systems did not appear to converge
   **   ~~~   ** Air System Named = CENTRAL SYSTEM did not converge for mass flow rate
   **   ~~~   ** Check values should be zero. Most Recent values listed first.
   **   ~~~   ** Demand-to-Supply interface mass flow rate check value iteration history trace: 0.133498,0.133498,0.133498,0.133498,0.133498,0.133498,0.133498,0.133498,0.133498,0.133498,
   **   ~~~   ** Supply-to-demand interface deck 1 mass flow rate check value iteration history trace: 0.133498,0.133498,0.133498,0.133498,0.133498,0.133498,0.133498,0.133498,0.133498,0.133498,
   **   ~~~   ** Air System Named = CENTRAL SYSTEM did not converge for energy
   **   ~~~   ** Check values should be zero. Most Recent values listed first.
   **   ~~~   ** Demand-to-Supply interface energy check value iteration history trace: 3305.100516,3305.100517,3305.100517,3305.100517,3305.100517,3305.100517,3305.100518,3305.100518,3305.100518,3305.100518,
   **   ~~~   ** Supply-to-demand interface deck 1 energy check value iteration history trace: 1708.889614,1708.889614,1708.889614,1708.889615,1708.889615,1708.889615,1708.889615,1708.889615,1708.889615,1708.889615,
   ** Warning ** SimHVAC: Maximum iterations (20) exceeded for all HVAC loops, at ANNUAL, 06/18 23:45 - 24:00
   **   ~~~   ** The solution for one or more of the Air Loop HVAC systems did not appear to converge
   **   ~~~   ** Air System Named = CENTRAL SYSTEM did not converge for mass flow rate
   **   ~~~   ** Check values should be zero. Most Recent values listed first.
   **   ~~~   ** Demand-to-Supply interface mass flow rate check value iteration history trace: 9.782572E-002,9.782572E-002,9.782572E-002,9.782572E-002,9.782572E-002,9.782572E-002,9.782572E-002,9.782572E-002,9.782572E-002,9.782572E-002,
   **   ~~~   ** Supply-to-demand interface deck 1 mass flow rate check value iteration history trace: 9.782572E-002,9.782572E-002,9.782572E-002,9.782572E-002,9.782572E-002,9.782572E-002,9.782572E-002,9.782572E-002,9.782572E-002,9.782572E-002,
   **   ~~~   ** Air System Named = CENTRAL SYSTEM did not converge for energy
   **   ~~~   ** Check values should be zero. Most Recent values listed first.
   **   ~~~   ** Demand-to-Supply interface energy check value iteration history trace: 2457.488402,2457.488403,2457.488403,2457.488403,2457.488403,2457.488403,2457.488403,2457.488404,2457.488404,2457.488404,
   **   ~~~   ** Supply-to-demand interface deck 1 energy check value iteration history trace: 1338.044516,1338.044516,1338.044516,1338.044517,1338.044517,1338.044517,1338.044517,1338.044517,1338.044517,1338.044517,
   ** Warning ** SimHVAC: Maximum iterations (20) exceeded for all HVAC loops, at ANNUAL, 10/23 09:45 - 10:00
   **   ~~~   ** The solution for one or more of the Air Loop HVAC systems did not appear to converge
   **   ~~~   ** Air System Named = CENTRAL SYSTEM did not converge for mass flow rate
   **   ~~~   ** Check values should be zero. Most Recent values listed first.
   **   ~~~   ** Demand-to-Supply interface mass flow rate check value iteration history trace: 5.391678E-002,5.391678E-002,5.391678E-002,5.391678E-002,5.391678E-002,5.391678E-002,5.391678E-002,5.391678E-002,5.391678E-002,5.391678E-002,
   **   ~~~   ** Supply-to-demand interface deck 1 mass flow rate check value iteration history trace: 5.391678E-002,5.391678E-002,5.391678E-002,5.391678E-002,5.391678E-002,5.391678E-002,5.391678E-002,5.391678E-002,5.391678E-002,5.391678E-002,
   **   ~~~   ** Air System Named = CENTRAL SYSTEM did not converge for energy
   **   ~~~   ** Check values should be zero. Most Recent values listed first.
   **   ~~~   ** Demand-to-Supply interface energy check value iteration history trace: 1068.424536,1068.424536,1068.424536,1068.424536,1068.424536,1068.424536,1068.424536,1068.424536,1068.424536,1068.424536,
   **   ~~~   ** Supply-to-demand interface deck 1 energy check value iteration history trace: 1944.068153,1944.068153,1944.068153,1944.068153,1944.068153,1944.068153,1944.068153,1944.068153,1944.068153,1944.068153,
   ************* Simulation Error Summary *************
   ** Warning ** The following Report Variables were requested but not generated -- check.rdd file
   **   ~~~   ** Either the IDF did not contain these elements, the variable name is misspelled,
   **   ~~~   ** or the requested variable is an advanced output which requires Output : Diagnostics, DisplayAdvancedReportVariables;
   ************* Key=*, VarName=BASEBOARD TOTAL HEATING ENERGY, Frequency=
   ************* Key=*, VarName=WATER HEATER NATURALGAS ENERGY, Frequency=
   ************* Key=*, VarName=COOLING COIL TOTAL HEATING ENERGY, Frequency=
   ************* There are 34 unused schedules in input.
   ************* There are 388 unused week schedules in input.
   ************* There are 396 unused day schedules in input.
   ************* Use Output:Diagnostics,DisplayUnusedSchedules; to see them.
   *************
   ************* ===== Recurring Error Summary =====
   ************* The following recurring error messages occurred.
   *************
   *************  ** Warning ** "TOTAL HOT WATER LOAD" - Target water temperature should be less than or equal to the hot water temperature error continues...
   *************  **   ~~~   **   This error occurred 109935 total times;
   *************  **   ~~~   **   during Warmup 0 times;
   *************  **   ~~~   **   during Sizing 0 times.
   *************  **   ~~~   **   Max=13.63726  Min=1.613534E-004
   *************
   *************  ** Warning ** SimHVAC: Exceeding Maximum iterations for all HVAC loops, during ANNUAL continues
   *************  **   ~~~   **   This error occurred 5 total times;
   *************  **   ~~~   **   during Warmup 0 times;
   *************  **   ~~~   **   during Sizing 0 times.
   *************
   *************
   ************* ===== Final Error Summary =====
   ************* The following error categories occurred.  Consider correcting or noting.
   ************* Nominally Unused Constructions
   ************* ..The nominally unused constructions warning is provided to alert you to potential conditions that can cause
   ************* ..extra time during simulation. Each construction is calculated by the algorithm indicated in the HeatBalanceAlgorithm
   ************* ..object. You may remove the constructions indicated (when you use the DisplayExtraWarnings option).
   *************
   ************* EnergyPlus Warmup Error Summary. During Warmup: 0 Warning; 0 Severe Errors.
   ************* EnergyPlus Sizing Error Summary. During Sizing: 4 Warning; 0 Severe Errors.
   ************* EnergyPlus Completed Successfully-- 109971 Warning; 0 Severe Errors; Elapsed Time=00hr 01min 23.37sec
