Program Version,EnergyPlus, Version 22.2.0-c249759bad, YMD=2023.09.01 15:27,
   ************* Beginning Zone Sizing Calculations
   ** Warning ** ProcessScheduleInput: Schedule:Constant="ALWAYS ON DISCRETE", Schedule Type Limits Name="ONOFF" not found -- will not be validated
   ** Warning ** Foundation:Kiva="KIVA FOUNDATION", no Interior Horizontal Insulation Material Name defined
   **   ~~~   ** Interior Horizontal Insulation Depth will not be used.
   ** Warning ** CheckUsedConstructions: There are 15 nominally unused constructions in input.
   **   ~~~   ** Each Unused construction is shown.
   ************* Construction=INTERIOR FLOOR
   ************* Construction=INTERIOR WINDOW
   ************* Construction=EXTERIOR DOOR
   ************* Construction=INTERIOR DOOR
   ************* Construction=GABLE CONSTRUCTION
   ************* Construction=CRAWL_FLOOR
   ************* Construction=INSULATED PIPE
   ************* Construction=PLAIN PIPE
   ************* Construction=TDD PIPE
   ************* Construction=TDD DOME
   ************* Construction=TDD DIFFUSER
   ************* Construction=CRAWL WALL
   ************* Construction=CEILING-FLOOR-LAYER
   ************* Construction=SLAB CONSTRUCTION W FULL R10 INSULATION
   ************* Construction=SLAB CONSTRUCTION W FULL R5 INSULATION
   ** Warning ** GetDXCoils: Coil:Heating:DX:SingleSpeed="DX_HEATING_COIL" curve values
   **   ~~~   ** ... Defrost Energy Input Ratio Function of Temperature Curve Name = DEFROSTEIR output is not equal to 1.0 (+ or - 10%) at rated conditions.
   **   ~~~   ** ... Curve output at rated conditions = 0.152
   ************* Beginning System Sizing Calculations
   ************* Beginning Plant Sizing Calculations
   ** Warning ** SizeDXCoil Coil:Cooling:DX:SingleSpeed DX_COOLING_COIL
   **   ~~~   ** ...Gross Rated Total Cooling Capacity [W] will be limited by the maximum rated volume flow per rated total capacity ratio.
   **   ~~~   ** ...DX coil volume flow rate ( m3/s ) = 0.382347
   **   ~~~   ** ...Requested capacity ( W ) = 5668.438
   **   ~~~   ** ...Requested flow/capacity ratio ( m3/s/W ) = 6.745E-005
   **   ~~~   ** ...Maximum flow/capacity ratio ( m3/s/W ) = 6.041E-005
   **   ~~~   ** ...Adjusted capacity ( W ) = 6329.209
   ** Warning ** Coil:WaterHeating:AirToWaterHeatPump:Wrapped "HEAT PUMP WATER HEATER EVAPORATOR": Rated air volume flow rate per watt of rated total water heating capacity is out of range
   **   ~~~   ** Min Rated Vol Flow Per Watt=[4.027E-005], Rated Vol Flow Per Watt=[1.386E-004], Max Rated Vol Flow Per Watt=[8.056E-005]. See Input-Output Reference Manual for valid range.
   ** Warning ** Water heater = WATER HEATER TANK:  Recovery Efficiency and Energy Factor could not be calculated during the test for standard ratings
   **   ~~~   ** Setpoint was never recovered and/or heater never turned on
   ** Warning ** Check input. Pump nominal power or motor efficiency is set to 0, for pump=MAINS PRESSURE
   ** Warning ** AirflowNetwork::Solver::validate_distribution: Heat pump water heater is simulated along with an AirflowNetwork but is not included in the AirflowNetwork.
   ** Warning ** Output:Meter: invalid Key Name="ELECTRIC_RANGE:INTERIOREQUIPMENT:ELECTRICITY" - not found.
   ** Warning ** Output:Meter: invalid Key Name="ELECTRIC_DRYER:INTERIOREQUIPMENT:ELECTRICITY" - not found.
   ** Warning ** Output:Meter: invalid Key Name="HEATRECOVERY:ELECTRICITY" - not found.
   ** Warning ** Output:Meter: invalid Key Name="HEATING:NATURALGAS" - not found.
   ** Warning ** Output:Meter: invalid Key Name="WATERSYSTEMS:NATURALGAS" - not found.
   ** Warning ** Output:Meter: invalid Key Name="PROPANE:FACILITY" - not found.
   ** Warning ** Output:Meter: invalid Key Name="HEATING:PROPANE" - not found.
   ************* Testing Individual Branch Integrity
   ************* All Branches passed integrity testing
   ************* Testing Individual Supply Air Path Integrity
   ************* All Supply Air Paths passed integrity testing
   ************* Testing Individual Return Air Path Integrity
   ************* All Return Air Paths passed integrity testing
   ************* No node connection errors were found.
   ************* Beginning Simulation
   ** Warning ** CalcEquipmentFlowRates: "TOTAL HOT WATER LOAD" - Target water temperature is greater than the hot water temperature by (1.68 C)
   **   ~~~   **  Environment=EXTREME_WINTER, at Simulation time=01/18 06:00 - 06:15
   **   ~~~   ** ...target water temperature     = 53.33 C
   **   ~~~   ** ...hot water temperature        = 51.65 C
   **   ~~~   ** ...Target water temperature should be less than or equal to the hot water temperature. Verify temperature setpoints and schedules.
   ** Warning ** SimHVAC: Maximum iterations (20) exceeded for all HVAC loops, at ANNUAL, 02/19 14:15 - 14:22
   **   ~~~   ** The solution for one or more of the Air Loop HVAC systems did not appear to converge
   **   ~~~   ** Air System Named = CENTRAL SYSTEM did not converge for mass flow rate
   **   ~~~   ** Check values should be zero. Most Recent values listed first.
   **   ~~~   ** Demand-to-Supply interface mass flow rate check value iteration history trace: 3.117016E-002,3.117016E-002,3.117016E-002,3.117016E-002,3.117016E-002,3.117016E-002,3.117016E-002,3.117016E-002,3.117016E-002,3.117016E-002,
   **   ~~~   ** Supply-to-demand interface deck 1 mass flow rate check value iteration history trace: 3.117016E-002,3.117016E-002,3.117016E-002,3.117016E-002,3.117016E-002,3.117016E-002,3.117016E-002,3.117016E-002,3.117016E-002,3.117016E-002,
   **   ~~~   ** Air System Named = CENTRAL SYSTEM did not converge for energy
   **   ~~~   ** Check values should be zero. Most Recent values listed first.
   **   ~~~   ** Demand-to-Supply interface energy check value iteration history trace: 617.671188,617.671188,617.671188,617.671188,617.671188,617.671187,617.671187,617.671187,617.671187,617.671187,
   **   ~~~   ** Supply-to-demand interface deck 1 energy check value iteration history trace: 924.930235,924.930235,924.930235,924.930235,924.930235,924.930235,924.930235,924.930235,924.930235,924.930234,
   ** Warning ** SimHVAC: Maximum iterations (20) exceeded for all HVAC loops, at ANNUAL, 03/27 14:00 - 14:15
   **   ~~~   ** The solution for one or more of the Air Loop HVAC systems did not appear to converge
   **   ~~~   ** Air System Named = CENTRAL SYSTEM did not converge for mass flow rate
   **   ~~~   ** Check values should be zero. Most Recent values listed first.
   **   ~~~   ** Demand-to-Supply interface mass flow rate check value iteration history trace: 7.073902E-002,7.073902E-002,7.073902E-002,7.073902E-002,7.073902E-002,7.073902E-002,7.073902E-002,7.073902E-002,7.073902E-002,7.073902E-002,
   **   ~~~   ** Supply-to-demand interface deck 1 mass flow rate check value iteration history trace: 7.073902E-002,7.073902E-002,7.073902E-002,7.073902E-002,7.073902E-002,7.073902E-002,7.073902E-002,7.073902E-002,7.073902E-002,7.073902E-002,
   **   ~~~   ** Air System Named = CENTRAL SYSTEM did not converge for energy
   **   ~~~   ** Check values should be zero. Most Recent values listed first.
   **   ~~~   ** Demand-to-Supply interface energy check value iteration history trace: 1402.206827,1402.206826,1402.206826,1402.206826,1402.206826,1402.206826,1402.206826,1402.206826,1402.206826,1402.206826,
   **   ~~~   ** Supply-to-demand interface deck 1 energy check value iteration history trace: 2401.363305,2401.363304,2401.363304,2401.363304,2401.363304,2401.363304,2401.363304,2401.363304,2401.363304,2401.363304,
   ** Warning ** SimHVAC: Maximum iterations (20) exceeded for all HVAC loops, at ANNUAL, 04/02 20:30 - 20:45
   **   ~~~   ** The solution for one or more of the Air Loop HVAC systems did not appear to converge
   **   ~~~   ** Air System Named = CENTRAL SYSTEM did not converge for mass flow rate
   **   ~~~   ** Check values should be zero. Most Recent values listed first.
   **   ~~~   ** Demand-to-Supply interface mass flow rate check value iteration history trace: 0.111257,0.111257,0.111257,0.111257,0.111257,0.111257,0.111257,0.111257,0.111257,0.111257,
   **   ~~~   ** Supply-to-demand interface deck 1 mass flow rate check value iteration history trace: 0.111257,0.111257,0.111257,0.111257,0.111257,0.111257,0.111257,0.111257,0.111257,0.111257,
   **   ~~~   ** Air System Named = CENTRAL SYSTEM did not converge for energy
   **   ~~~   ** Check values should be zero. Most Recent values listed first.
   **   ~~~   ** Demand-to-Supply interface energy check value iteration history trace: 2197.079744,2197.079744,2197.079744,2197.079743,2197.079743,2197.079743,2197.079743,2197.079743,2197.079743,2197.079743,
   **   ~~~   ** Supply-to-demand interface deck 1 energy check value iteration history trace: 3388.663412,3388.663412,3388.663411,3388.663411,3388.663411,3388.663411,3388.663411,3388.663411,3388.663410,3388.663410,
   ** Warning ** SimHVAC: Maximum iterations (20) exceeded for all HVAC loops, at ANNUAL, 04/22 11:15 - 11:18
   **   ~~~   ** The solution for one or more of the Air Loop HVAC systems did not appear to converge
   **   ~~~   ** Air System Named = CENTRAL SYSTEM did not converge for mass flow rate
   **   ~~~   ** Check values should be zero. Most Recent values listed first.
   **   ~~~   ** Demand-to-Supply interface mass flow rate check value iteration history trace: 7.405724E-002,7.405724E-002,7.405724E-002,7.405724E-002,7.405724E-002,7.405724E-002,7.405724E-002,7.405724E-002,7.405724E-002,7.405724E-002,
   **   ~~~   ** Supply-to-demand interface deck 1 mass flow rate check value iteration history trace: 7.405724E-002,7.405724E-002,7.405724E-002,7.405724E-002,7.405724E-002,7.405724E-002,7.405724E-002,7.405724E-002,7.405724E-002,7.405724E-002,
   **   ~~~   ** Air System Named = CENTRAL SYSTEM did not converge for energy
   **   ~~~   ** Check values should be zero. Most Recent values listed first.
   **   ~~~   ** Demand-to-Supply interface energy check value iteration history trace: 1463.076565,1463.076565,1463.076564,1463.076564,1463.076564,1463.076564,1463.076564,1463.076564,1463.076564,1463.076564,
   **   ~~~   ** Supply-to-demand interface deck 1 energy check value iteration history trace: 2483.994453,2483.994453,2483.994453,2483.994452,2483.994452,2483.994452,2483.994452,2483.994452,2483.994452,2483.994452,
   ** Warning ** SimHVAC: Maximum iterations (20) exceeded for all HVAC loops, at ANNUAL, 04/25 21:15 - 21:30
   **   ~~~   ** The solution for one or more of the Air Loop HVAC systems did not appear to converge
   **   ~~~   ** Air System Named = CENTRAL SYSTEM did not converge for mass flow rate
   **   ~~~   ** Check values should be zero. Most Recent values listed first.
   **   ~~~   ** Demand-to-Supply interface mass flow rate check value iteration history trace: 5.099126E-002,5.099126E-002,5.099126E-002,5.099126E-002,5.099126E-002,5.099126E-002,5.099126E-002,5.099126E-002,5.099126E-002,5.099126E-002,
   **   ~~~   ** Supply-to-demand interface deck 1 mass flow rate check value iteration history trace: 5.099126E-002,5.099126E-002,5.099126E-002,5.099126E-002,5.099126E-002,5.099126E-002,5.099126E-002,5.099126E-002,5.099126E-002,5.099126E-002,
   **   ~~~   ** Air System Named = CENTRAL SYSTEM did not converge for energy
   **   ~~~   ** Check values should be zero. Most Recent values listed first.
   **   ~~~   ** Demand-to-Supply interface energy check value iteration history trace: 1008.367060,1008.367060,1008.367060,1008.367060,1008.367060,1008.367060,1008.367060,1008.367060,1008.367060,1008.367060,
   **   ~~~   ** Supply-to-demand interface deck 1 energy check value iteration history trace: 1709.933148,1709.933148,1709.933148,1709.933148,1709.933148,1709.933148,1709.933148,1709.933148,1709.933148,1709.933148,
   ** Warning ** SimHVAC: Maximum iterations (20) exceeded for all HVAC loops, at ANNUAL, 04/30 21:00 - 21:08
   **   ~~~   ** The solution for one or more of the Air Loop HVAC systems did not appear to converge
   **   ~~~   ** Air System Named = CENTRAL SYSTEM did not converge for mass flow rate
   **   ~~~   ** Check values should be zero. Most Recent values listed first.
   **   ~~~   ** Demand-to-Supply interface mass flow rate check value iteration history trace: 6.953600E-002,6.953600E-002,6.953600E-002,6.953600E-002,6.953600E-002,6.953600E-002,6.953600E-002,6.953600E-002,6.953600E-002,6.953600E-002,
   **   ~~~   ** Supply-to-demand interface deck 1 mass flow rate check value iteration history trace: 6.953600E-002,6.953600E-002,6.953600E-002,6.953600E-002,6.953600E-002,6.953600E-002,6.953600E-002,6.953600E-002,6.953600E-002,6.953600E-002,
   **   ~~~   ** Air System Named = CENTRAL SYSTEM did not converge for energy
   **   ~~~   ** Check values should be zero. Most Recent values listed first.
   **   ~~~   ** Demand-to-Supply interface energy check value iteration history trace: 1362.158064,1362.158064,1362.158064,1362.158064,1362.158064,1362.158064,1362.158064,1362.158064,1362.158064,1362.158064,
   **   ~~~   ** Supply-to-demand interface deck 1 energy check value iteration history trace: 2405.570641,2405.570641,2405.570641,2405.570641,2405.570640,2405.570640,2405.570640,2405.570640,2405.570640,2405.570640,
   ** Warning ** SimHVAC: Maximum iterations (20) exceeded for all HVAC loops, at ANNUAL, 05/05 06:38 - 06:40
   **   ~~~   ** The solution for one or more of the Air Loop HVAC systems did not appear to converge
   **   ~~~   ** Air System Named = CENTRAL SYSTEM did not converge for mass flow rate
   **   ~~~   ** Check values should be zero. Most Recent values listed first.
   **   ~~~   ** Demand-to-Supply interface mass flow rate check value iteration history trace: 8.049110E-002,8.049110E-002,8.049110E-002,8.049110E-002,8.049110E-002,8.049110E-002,8.049110E-002,8.049110E-002,8.049110E-002,8.049110E-002,
   **   ~~~   ** Supply-to-demand interface deck 1 mass flow rate check value iteration history trace: 8.049110E-002,8.049110E-002,8.049110E-002,8.049110E-002,8.049110E-002,8.049110E-002,8.049110E-002,8.049110E-002,8.049110E-002,8.049110E-002,
   **   ~~~   ** Air System Named = CENTRAL SYSTEM did not converge for energy
   **   ~~~   ** Check values should be zero. Most Recent values listed first.
   **   ~~~   ** Demand-to-Supply interface energy check value iteration history trace: 1592.533285,1592.533285,1592.533285,1592.533285,1592.533285,1592.533285,1592.533285,1592.533285,1592.533284,1592.533284,
   **   ~~~   ** Supply-to-demand interface deck 1 energy check value iteration history trace: 2808.986245,2808.986244,2808.986244,2808.986244,2808.986244,2808.986244,2808.986244,2808.986244,2808.986244,2808.986243,
   ** Warning ** SimHVAC: Maximum iterations (20) exceeded for all HVAC loops, at ANNUAL, 05/06 08:30 - 08:45
   **   ~~~   ** The solution for one or more of the Air Loop HVAC systems did not appear to converge
   **   ~~~   ** Air System Named = CENTRAL SYSTEM did not converge for mass flow rate
   **   ~~~   ** Check values should be zero. Most Recent values listed first.
   **   ~~~   ** Demand-to-Supply interface mass flow rate check value iteration history trace: 7.810864E-002,7.810864E-002,7.810864E-002,7.810864E-002,7.810864E-002,7.810864E-002,7.810864E-002,7.810864E-002,7.810864E-002,7.810864E-002,
   **   ~~~   ** Supply-to-demand interface deck 1 mass flow rate check value iteration history trace: 7.810864E-002,7.810864E-002,7.810864E-002,7.810864E-002,7.810864E-002,7.810864E-002,7.810864E-002,7.810864E-002,7.810864E-002,7.810864E-002,
   **   ~~~   ** Air System Named = CENTRAL SYSTEM did not converge for energy
   **   ~~~   ** Check values should be zero. Most Recent values listed first.
   **   ~~~   ** Demand-to-Supply interface energy check value iteration history trace: 1545.247533,1545.247533,1545.247533,1545.247533,1545.247533,1545.247533,1545.247533,1545.247533,1545.247533,1545.247533,
   **   ~~~   ** Supply-to-demand interface deck 1 energy check value iteration history trace: 2764.745143,2764.745143,2764.745143,2764.745143,2764.745143,2764.745143,2764.745143,2764.745143,2764.745142,2764.745142,
   ** Warning ** SimHVAC: Maximum iterations (20) exceeded for all HVAC loops, at ANNUAL, 05/13 08:00 - 08:02
   **   ~~~   ** The solution for one or more of the Air Loop HVAC systems did not appear to converge
   **   ~~~   ** Air System Named = CENTRAL SYSTEM did not converge for mass flow rate
   **   ~~~   ** Check values should be zero. Most Recent values listed first.
   **   ~~~   ** Demand-to-Supply interface mass flow rate check value iteration history trace: 7.585131E-002,7.585131E-002,7.585131E-002,7.585131E-002,7.585131E-002,7.585131E-002,7.585131E-002,7.585131E-002,7.585131E-002,7.585131E-002,
   **   ~~~   ** Supply-to-demand interface deck 1 mass flow rate check value iteration history trace: 7.585131E-002,7.585131E-002,7.585131E-002,7.585131E-002,7.585131E-002,7.585131E-002,7.585131E-002,7.585131E-002,7.585131E-002,7.585131E-002,
   **   ~~~   ** Air System Named = CENTRAL SYSTEM did not converge for energy
   **   ~~~   ** Check values should be zero. Most Recent values listed first.
   **   ~~~   ** Demand-to-Supply interface energy check value iteration history trace: 1503.138983,1503.138983,1503.138983,1503.138983,1503.138983,1503.138983,1503.138983,1503.138983,1503.138983,1503.138982,
   **   ~~~   ** Supply-to-demand interface deck 1 energy check value iteration history trace: 2566.685793,2566.685793,2566.685793,2566.685793,2566.685793,2566.685792,2566.685792,2566.685792,2566.685792,2566.685792,
   ** Warning ** SimHVAC: Maximum iterations (20) exceeded for all HVAC loops, at ANNUAL, 09/11 20:45 - 21:00
   **   ~~~   ** The solution for one or more of the Air Loop HVAC systems did not appear to converge
   **   ~~~   ** Air System Named = CENTRAL SYSTEM did not converge for mass flow rate
   **   ~~~   ** Check values should be zero. Most Recent values listed first.
   **   ~~~   ** Demand-to-Supply interface mass flow rate check value iteration history trace: 0.150453,0.150453,0.150453,0.150453,0.150453,0.150453,0.150453,0.150453,0.150453,0.150453,
   **   ~~~   ** Supply-to-demand interface deck 1 mass flow rate check value iteration history trace: 0.150453,0.150453,0.150453,0.150453,0.150453,0.150453,0.150453,0.150453,0.150453,0.150453,
   **   ~~~   ** Air System Named = CENTRAL SYSTEM did not converge for energy
   **   ~~~   ** Check values should be zero. Most Recent values listed first.
   **   ~~~   ** Demand-to-Supply interface energy check value iteration history trace: 3651.083441,3651.083441,3651.083442,3651.083442,3651.083442,3651.083443,3651.083443,3651.083444,3651.083444,3651.083444,
   **   ~~~   ** Supply-to-demand interface deck 1 energy check value iteration history trace: 1613.997310,1613.997310,1613.997310,1613.997310,1613.997311,1613.997311,1613.997311,1613.997311,1613.997311,1613.997311,
   ** Warning ** SimHVAC: Maximum iterations (20) exceeded for all HVAC loops, at ANNUAL, 09/12 18:38 - 18:45
   **   ~~~   ** The solution for one or more of the Air Loop HVAC systems did not appear to converge
   **   ~~~   ** Air System Named = CENTRAL SYSTEM did not converge for mass flow rate
   **   ~~~   ** Check values should be zero. Most Recent values listed first.
   **   ~~~   ** Demand-to-Supply interface mass flow rate check value iteration history trace: 0.142814,0.142814,0.142814,0.142814,0.142814,0.142814,0.142814,0.142814,0.142814,0.142814,
   **   ~~~   ** Supply-to-demand interface deck 1 mass flow rate check value iteration history trace: 0.142814,0.142814,0.142814,0.142814,0.142814,0.142814,0.142814,0.142814,0.142814,0.142814,
   **   ~~~   ** Air System Named = CENTRAL SYSTEM did not converge for energy
   **   ~~~   ** Check values should be zero. Most Recent values listed first.
   **   ~~~   ** Demand-to-Supply interface energy check value iteration history trace: 3367.934878,3367.934878,3367.934879,3367.934879,3367.934879,3367.934879,3367.934879,3367.934880,3367.934880,3367.934880,
   **   ~~~   ** Supply-to-demand interface deck 1 energy check value iteration history trace: 1871.881580,1871.881580,1871.881580,1871.881580,1871.881581,1871.881581,1871.881581,1871.881581,1871.881581,1871.881581,
   ** Warning ** SimHVAC: Maximum iterations (20) exceeded for all HVAC loops, at ANNUAL, 09/23 10:49 - 10:52
   **   ~~~   ** The solution for one or more of the Air Loop HVAC systems did not appear to converge
   **   ~~~   ** Air System Named = CENTRAL SYSTEM did not converge for mass flow rate
   **   ~~~   ** Check values should be zero. Most Recent values listed first.
   **   ~~~   ** Demand-to-Supply interface mass flow rate check value iteration history trace: 0.107914,0.107914,0.107914,0.107914,0.107914,0.107914,0.107914,0.107914,0.107914,0.107914,
   **   ~~~   ** Supply-to-demand interface deck 1 mass flow rate check value iteration history trace: 0.107914,0.107914,0.107914,0.107914,0.107914,0.107914,0.107914,0.107914,0.107914,0.107914,
   **   ~~~   ** Air System Named = CENTRAL SYSTEM did not converge for energy
   **   ~~~   ** Check values should be zero. Most Recent values listed first.
   **   ~~~   ** Demand-to-Supply interface energy check value iteration history trace: 2547.211756,2547.211756,2547.211757,2547.211757,2547.211757,2547.211757,2547.211757,2547.211757,2547.211758,2547.211758,
   **   ~~~   ** Supply-to-demand interface deck 1 energy check value iteration history trace: 1405.885168,1405.885169,1405.885169,1405.885169,1405.885169,1405.885169,1405.885169,1405.885169,1405.885169,1405.885169,
   ** Warning ** SimHVAC: Maximum iterations (20) exceeded for all HVAC loops, at ANNUAL, 09/24 09:40 - 09:45
   **   ~~~   ** The solution for one or more of the Air Loop HVAC systems did not appear to converge
   **   ~~~   ** Air System Named = CENTRAL SYSTEM did not converge for mass flow rate
   **   ~~~   ** Check values should be zero. Most Recent values listed first.
   **   ~~~   ** Demand-to-Supply interface mass flow rate check value iteration history trace: 0.147010,0.147010,0.147010,0.147010,0.147010,0.147010,0.147010,0.147010,0.147010,0.147010,
   **   ~~~   ** Supply-to-demand interface deck 1 mass flow rate check value iteration history trace: 0.147010,0.147010,0.147010,0.147010,0.147010,0.147010,0.147010,0.147010,0.147010,0.147010,
   **   ~~~   ** Air System Named = CENTRAL SYSTEM did not converge for energy
   **   ~~~   ** Check values should be zero. Most Recent values listed first.
   **   ~~~   ** Demand-to-Supply interface energy check value iteration history trace: 3495.214530,3495.214530,3495.214530,3495.214531,3495.214531,3495.214531,3495.214532,3495.214532,3495.214532,3495.214533,
   **   ~~~   ** Supply-to-demand interface deck 1 energy check value iteration history trace: 1975.720507,1975.720507,1975.720507,1975.720507,1975.720507,1975.720508,1975.720508,1975.720508,1975.720508,1975.720508,
   ** Warning ** SimHVAC: Maximum iterations (20) exceeded for all HVAC loops, at ANNUAL, 10/16 19:00 - 19:15
   **   ~~~   ** The solution for one or more of the Air Loop HVAC systems did not appear to converge
   **   ~~~   ** Air System Named = CENTRAL SYSTEM did not converge for mass flow rate
   **   ~~~   ** Check values should be zero. Most Recent values listed first.
   **   ~~~   ** Demand-to-Supply interface mass flow rate check value iteration history trace: 5.742228E-002,5.742228E-002,5.742228E-002,5.742228E-002,5.742228E-002,5.742228E-002,5.742228E-002,5.742228E-002,5.742228E-002,5.742228E-002,
   **   ~~~   ** Supply-to-demand interface deck 1 mass flow rate check value iteration history trace: 5.742228E-002,5.742228E-002,5.742228E-002,5.742228E-002,5.742228E-002,5.742228E-002,5.742228E-002,5.742228E-002,5.742228E-002,5.742228E-002,
   **   ~~~   ** Air System Named = CENTRAL SYSTEM did not converge for energy
   **   ~~~   ** Check values should be zero. Most Recent values listed first.
   **   ~~~   ** Demand-to-Supply interface energy check value iteration history trace: 1136.931714,1136.931714,1136.931714,1136.931713,1136.931713,1136.931713,1136.931713,1136.931713,1136.931713,1136.931713,
   **   ~~~   ** Supply-to-demand interface deck 1 energy check value iteration history trace: 1980.873191,1980.873190,1980.873190,1980.873190,1980.873190,1980.873190,1980.873190,1980.873190,1980.873190,1980.873190,
   ************* Simulation Error Summary *************
   ** Warning ** The following Report Variables were requested but not generated -- check.rdd file
   **   ~~~   ** Either the IDF did not contain these elements, the variable name is misspelled,
   **   ~~~   ** or the requested variable is an advanced output which requires Output : Diagnostics, DisplayAdvancedReportVariables;
   ************* Key=*, VarName=BASEBOARD TOTAL HEATING ENERGY, Frequency=
   ************* Key=*, VarName=WATER HEATER NATURALGAS ENERGY, Frequency=
   ************* Key=*, VarName=COOLING COIL TOTAL HEATING ENERGY, Frequency=
   ************* There are 34 unused schedules in input.
   ************* There are 388 unused week schedules in input.
   ************* There are 396 unused day schedules in input.
   ************* Use Output:Diagnostics,DisplayUnusedSchedules; to see them.
   *************
   ************* ===== Recurring Error Summary =====
   ************* The following recurring error messages occurred.
   *************
   *************  ** Warning ** "TOTAL HOT WATER LOAD" - Target water temperature should be less than or equal to the hot water temperature error continues...
   *************  **   ~~~   **   This error occurred 95601 total times;
   *************  **   ~~~   **   during Warmup 0 times;
   *************  **   ~~~   **   during Sizing 0 times.
   *************  **   ~~~   **   Max=12.160763  Min=7.190248E-006
   *************
   *************  ** Warning ** SimHVAC: Exceeding Maximum iterations for all HVAC loops, during ANNUAL continues
   *************  **   ~~~   **   This error occurred 2 total times;
   *************  **   ~~~   **   during Warmup 0 times;
   *************  **   ~~~   **   during Sizing 0 times.
   *************
   *************
   ************* ===== Final Error Summary =====
   ************* The following error categories occurred.  Consider correcting or noting.
   ************* Nominally Unused Constructions
   ************* ..The nominally unused constructions warning is provided to alert you to potential conditions that can cause
   ************* ..extra time during simulation. Each construction is calculated by the algorithm indicated in the HeatBalanceAlgorithm
   ************* ..object. You may remove the constructions indicated (when you use the DisplayExtraWarnings option).
   *************
   ************* EnergyPlus Warmup Error Summary. During Warmup: 0 Warning; 0 Severe Errors.
   ************* EnergyPlus Sizing Error Summary. During Sizing: 4 Warning; 0 Severe Errors.
   ************* EnergyPlus Completed Successfully-- 95635 Warning; 0 Severe Errors; Elapsed Time=00hr 05min  0.56sec
