Program Version,EnergyPlus, Version 22.2.0-c249759bad, YMD=2023.09.01 15:27,
   ************* Beginning Zone Sizing Calculations
   ** Warning ** ProcessScheduleInput: Schedule:Constant="ALWAYS ON DISCRETE", Schedule Type Limits Name="ONOFF" not found -- will not be validated
   ** Warning ** Foundation:Kiva="KIVA FOUNDATION", no Interior Horizontal Insulation Material Name defined
   **   ~~~   ** Interior Horizontal Insulation Depth will not be used.
   ** Warning ** CheckUsedConstructions: There are 15 nominally unused constructions in input.
   **   ~~~   ** Each Unused construction is shown.
   ************* Construction=INTERIOR FLOOR
   ************* Construction=INTERIOR WINDOW
   ************* Construction=EXTERIOR DOOR
   ************* Construction=INTERIOR DOOR
   ************* Construction=GABLE CONSTRUCTION
   ************* Construction=CRAWL_FLOOR
   ************* Construction=INSULATED PIPE
   ************* Construction=PLAIN PIPE
   ************* Construction=TDD PIPE
   ************* Construction=TDD DOME
   ************* Construction=TDD DIFFUSER
   ************* Construction=CRAWL WALL
   ************* Construction=CEILING-FLOOR-LAYER
   ************* Construction=SLAB CONSTRUCTION W FULL R10 INSULATION
   ************* Construction=SLAB CONSTRUCTION W FULL R5 INSULATION
   ** Warning ** GetDXCoils: Coil:Heating:DX:SingleSpeed="DX_HEATING_COIL" curve values
   **   ~~~   ** ... Defrost Energy Input Ratio Function of Temperature Curve Name = DEFROSTEIR output is not equal to 1.0 (+ or - 10%) at rated conditions.
   **   ~~~   ** ... Curve output at rated conditions = 0.152
   ************* Beginning System Sizing Calculations
   ************* Beginning Plant Sizing Calculations
   ** Warning ** SizeDXCoil Coil:Cooling:DX:SingleSpeed DX_COOLING_COIL
   **   ~~~   ** ...Gross Rated Total Cooling Capacity [W] will be limited by the maximum rated volume flow per rated total capacity ratio.
   **   ~~~   ** ...DX coil volume flow rate ( m3/s ) = 0.339630
   **   ~~~   ** ...Requested capacity ( W ) = 4963.308
   **   ~~~   ** ...Requested flow/capacity ratio ( m3/s/W ) = 6.842E-005
   **   ~~~   ** ...Maximum flow/capacity ratio ( m3/s/W ) = 6.041E-005
   **   ~~~   ** ...Adjusted capacity ( W ) = 5622.084
   ** Warning ** Coil:WaterHeating:AirToWaterHeatPump:Wrapped "HEAT PUMP WATER HEATER EVAPORATOR": Rated air volume flow rate per watt of rated total water heating capacity is out of range
   **   ~~~   ** Min Rated Vol Flow Per Watt=[4.027E-005], Rated Vol Flow Per Watt=[1.386E-004], Max Rated Vol Flow Per Watt=[8.056E-005]. See Input-Output Reference Manual for valid range.
   ** Warning ** Water heater = WATER HEATER TANK:  Recovery Efficiency and Energy Factor could not be calculated during the test for standard ratings
   **   ~~~   ** Setpoint was never recovered and/or heater never turned on
   ** Warning ** Check input. Pump nominal power or motor efficiency is set to 0, for pump=MAINS PRESSURE
   ** Warning ** Output:Meter: invalid Key Name="ELECTRIC_RANGE:INTERIOREQUIPMENT:ELECTRICITY" - not found.
   ** Warning ** Output:Meter: invalid Key Name="ELECTRIC_DRYER:INTERIOREQUIPMENT:ELECTRICITY" - not found.
   ** Warning ** Output:Meter: invalid Key Name="HEATRECOVERY:ELECTRICITY" - not found.
   ** Warning ** Output:Meter: invalid Key Name="HEATING:NATURALGAS" - not found.
   ** Warning ** Output:Meter: invalid Key Name="WATERSYSTEMS:NATURALGAS" - not found.
   ** Warning ** Output:Meter: invalid Key Name="PROPANE:FACILITY" - not found.
   ** Warning ** Output:Meter: invalid Key Name="HEATING:PROPANE" - not found.
   ************* Testing Individual Branch Integrity
   ************* All Branches passed integrity testing
   ************* Testing Individual Supply Air Path Integrity
   ************* All Supply Air Paths passed integrity testing
   ************* Testing Individual Return Air Path Integrity
   ************* All Return Air Paths passed integrity testing
   ************* No node connection errors were found.
   ************* Beginning Simulation
   ** Warning ** AirflowNetwork::Solver::validate_distribution: Heat pump water heater is simulated along with an AirflowNetwork but is not included in the AirflowNetwork.
   ** Warning ** CalcEquipmentFlowRates: "TOTAL HOT WATER LOAD" - Target water temperature is greater than the hot water temperature by (1.65 C)
   **   ~~~   **  Environment=EXTREME_WINTER, at Simulation time=01/01 06:00 - 06:15
   **   ~~~   ** ...target water temperature     = 53.33 C
   **   ~~~   ** ...hot water temperature        = 51.68 C
   **   ~~~   ** ...Target water temperature should be less than or equal to the hot water temperature. Verify temperature setpoints and schedules.
   ** Warning ** SimHVAC: Maximum iterations (20) exceeded for all HVAC loops, at ANNUAL, 03/26 09:30 - 09:33
   **   ~~~   ** The solution for one or more of the Air Loop HVAC systems did not appear to converge
   **   ~~~   ** Air System Named = CENTRAL SYSTEM did not converge for mass flow rate
   **   ~~~   ** Check values should be zero. Most Recent values listed first.
   **   ~~~   ** Demand-to-Supply interface mass flow rate check value iteration history trace: 8.279465E-002,8.279465E-002,8.279465E-002,8.279465E-002,8.279465E-002,8.279465E-002,8.279465E-002,8.279465E-002,8.279465E-002,8.279465E-002,
   **   ~~~   ** Supply-to-demand interface deck 1 mass flow rate check value iteration history trace: 8.279465E-002,8.279465E-002,8.279465E-002,8.279465E-002,8.279465E-002,8.279465E-002,8.279465E-002,8.279465E-002,8.279465E-002,8.279465E-002,
   **   ~~~   ** Air System Named = CENTRAL SYSTEM did not converge for energy
   **   ~~~   ** Check values should be zero. Most Recent values listed first.
   **   ~~~   ** Demand-to-Supply interface energy check value iteration history trace: 1640.709230,1640.709230,1640.709230,1640.709230,1640.709229,1640.709229,1640.709229,1640.709229,1640.709229,1640.709229,
   **   ~~~   ** Supply-to-demand interface deck 1 energy check value iteration history trace: 2871.794734,2871.794734,2871.794734,2871.794734,2871.794734,2871.794733,2871.794733,2871.794733,2871.794733,2871.794733,
   ** Warning ** SimHVAC: Maximum iterations (20) exceeded for all HVAC loops, at ANNUAL, 04/04 20:15 - 20:30
   **   ~~~   ** The solution for one or more of the Air Loop HVAC systems did not appear to converge
   **   ~~~   ** Air System Named = CENTRAL SYSTEM did not converge for mass flow rate
   **   ~~~   ** Check values should be zero. Most Recent values listed first.
   **   ~~~   ** Demand-to-Supply interface mass flow rate check value iteration history trace: 0.118715,0.118715,0.118715,0.118715,0.118715,0.118715,0.118715,0.118715,0.118715,0.118715,
   **   ~~~   ** Supply-to-demand interface deck 1 mass flow rate check value iteration history trace: 0.118715,0.118715,0.118715,0.118715,0.118715,0.118715,0.118715,0.118715,0.118715,0.118715,
   **   ~~~   ** Air System Named = CENTRAL SYSTEM did not converge for energy
   **   ~~~   ** Check values should be zero. Most Recent values listed first.
   **   ~~~   ** Demand-to-Supply interface energy check value iteration history trace: 2353.363668,2353.363668,2353.363667,2353.363667,2353.363667,2353.363667,2353.363667,2353.363667,2353.363666,2353.363666,
   **   ~~~   ** Supply-to-demand interface deck 1 energy check value iteration history trace: 3522.216675,3522.216675,3522.216675,3522.216674,3522.216674,3522.216674,3522.216674,3522.216673,3522.216673,3522.216673,
   ** Warning ** SimHVAC: Maximum iterations (20) exceeded for all HVAC loops, at ANNUAL, 04/09 08:23 - 08:26
   **   ~~~   ** The solution for one or more of the Air Loop HVAC systems did not appear to converge
   **   ~~~   ** Air System Named = CENTRAL SYSTEM did not converge for mass flow rate
   **   ~~~   ** Check values should be zero. Most Recent values listed first.
   **   ~~~   ** Demand-to-Supply interface mass flow rate check value iteration history trace: 6.331617E-002,6.331617E-002,6.331617E-002,6.331617E-002,6.331617E-002,6.331617E-002,6.331617E-002,6.331617E-002,6.331617E-002,6.331617E-002,
   **   ~~~   ** Supply-to-demand interface deck 1 mass flow rate check value iteration history trace: 6.331617E-002,6.331617E-002,6.331617E-002,6.331617E-002,6.331617E-002,6.331617E-002,6.331617E-002,6.331617E-002,6.331617E-002,6.331617E-002,
   **   ~~~   ** Air System Named = CENTRAL SYSTEM did not converge for energy
   **   ~~~   ** Check values should be zero. Most Recent values listed first.
   **   ~~~   ** Demand-to-Supply interface energy check value iteration history trace: 1249.898882,1249.898882,1249.898882,1249.898882,1249.898882,1249.898882,1249.898882,1249.898881,1249.898881,1249.898881,
   **   ~~~   ** Supply-to-demand interface deck 1 energy check value iteration history trace: 2264.153652,2264.153652,2264.153652,2264.153652,2264.153652,2264.153651,2264.153651,2264.153651,2264.153651,2264.153651,
   ** Warning ** SimHVAC: Maximum iterations (20) exceeded for all HVAC loops, at ANNUAL, 05/26 07:30 - 07:45
   **   ~~~   ** The solution for one or more of the Air Loop HVAC systems did not appear to converge
   **   ~~~   ** Air System Named = CENTRAL SYSTEM did not converge for mass flow rate
   **   ~~~   ** Check values should be zero. Most Recent values listed first.
   **   ~~~   ** Demand-to-Supply interface mass flow rate check value iteration history trace: 2.575575E-002,2.575575E-002,2.575575E-002,2.575575E-002,2.575575E-002,2.575575E-002,2.575575E-002,2.575575E-002,2.575575E-002,2.575575E-002,
   **   ~~~   ** Supply-to-demand interface deck 1 mass flow rate check value iteration history trace: 2.575575E-002,2.575575E-002,2.575575E-002,2.575575E-002,2.575575E-002,2.575575E-002,2.575575E-002,2.575575E-002,2.575575E-002,2.575575E-002,
   **   ~~~   ** Air System Named = CENTRAL SYSTEM did not converge for energy
   **   ~~~   ** Check values should be zero. Most Recent values listed first.
   **   ~~~   ** Demand-to-Supply interface energy check value iteration history trace: 509.300631,509.300631,509.300631,509.300631,509.300631,509.300631,509.300631,509.300631,509.300631,509.300631,
   **   ~~~   ** Supply-to-demand interface deck 1 energy check value iteration history trace: 892.853926,892.853926,892.853926,892.853926,892.853926,892.853926,892.853926,892.853926,892.853926,892.853926,
   ** Warning ** SimHVAC: Maximum iterations (20) exceeded for all HVAC loops, at ANNUAL, 05/28 10:30 - 10:45
   **   ~~~   ** The solution for one or more of the Air Loop HVAC systems did not appear to converge
   **   ~~~   ** Air System Named = CENTRAL SYSTEM did not converge for mass flow rate
   **   ~~~   ** Check values should be zero. Most Recent values listed first.
   **   ~~~   ** Demand-to-Supply interface mass flow rate check value iteration history trace: 6.773096E-002,6.773096E-002,6.773096E-002,6.773096E-002,6.773096E-002,6.773096E-002,6.773096E-002,6.773096E-002,6.773096E-002,6.773096E-002,
   **   ~~~   ** Supply-to-demand interface deck 1 mass flow rate check value iteration history trace: 6.773096E-002,6.773096E-002,6.773096E-002,6.773096E-002,6.773096E-002,6.773096E-002,6.773096E-002,6.773096E-002,6.773096E-002,6.773096E-002,
   **   ~~~   ** Air System Named = CENTRAL SYSTEM did not converge for energy
   **   ~~~   ** Check values should be zero. Most Recent values listed first.
   **   ~~~   ** Demand-to-Supply interface energy check value iteration history trace: 1326.335993,1326.335993,1326.335993,1326.335993,1326.335993,1326.335993,1326.335993,1326.335993,1326.335993,1326.335993,
   **   ~~~   ** Supply-to-demand interface deck 1 energy check value iteration history trace: 2350.569686,2350.569686,2350.569686,2350.569686,2350.569686,2350.569686,2350.569686,2350.569685,2350.569685,2350.569685,
   ** Warning ** SimHVAC: Maximum iterations (20) exceeded for all HVAC loops, at ANNUAL, 06/23 07:15 - 07:30
   **   ~~~   ** The solution for one or more of the Air Loop HVAC systems did not appear to converge
   **   ~~~   ** Air System Named = CENTRAL SYSTEM did not converge for mass flow rate
   **   ~~~   ** Check values should be zero. Most Recent values listed first.
   **   ~~~   ** Demand-to-Supply interface mass flow rate check value iteration history trace: 0.147619,0.147619,0.147619,0.147619,0.147619,0.147619,0.147619,0.147619,0.147619,0.147619,
   **   ~~~   ** Supply-to-demand interface deck 1 mass flow rate check value iteration history trace: 0.147619,0.147619,0.147619,0.147619,0.147619,0.147619,0.147619,0.147619,0.147619,0.147619,
   **   ~~~   ** Air System Named = CENTRAL SYSTEM did not converge for energy
   **   ~~~   ** Check values should be zero. Most Recent values listed first.
   **   ~~~   ** Demand-to-Supply interface energy check value iteration history trace: 3492.866314,3492.866315,3492.866316,3492.866316,3492.866317,3492.866318,3492.866319,3492.866319,3492.866320,3492.866321,
   **   ~~~   ** Supply-to-demand interface deck 1 energy check value iteration history trace: 1754.686947,1754.686948,1754.686948,1754.686948,1754.686949,1754.686949,1754.686950,1754.686950,1754.686950,1754.686951,
   ** Warning ** SimHVAC: Maximum iterations (20) exceeded for all HVAC loops, at ANNUAL, 09/26 08:00 - 08:15
   **   ~~~   ** The solution for one or more of the Air Loop HVAC systems did not appear to converge
   **   ~~~   ** Air System Named = CENTRAL SYSTEM did not converge for mass flow rate
   **   ~~~   ** Check values should be zero. Most Recent values listed first.
   **   ~~~   ** Demand-to-Supply interface mass flow rate check value iteration history trace: 6.431345E-002,6.431345E-002,6.431345E-002,6.431345E-002,6.431345E-002,6.431345E-002,6.431345E-002,6.431345E-002,6.431345E-002,6.431345E-002,
   **   ~~~   ** Supply-to-demand interface deck 1 mass flow rate check value iteration history trace: 6.431345E-002,6.431345E-002,6.431345E-002,6.431345E-002,6.431345E-002,6.431345E-002,6.431345E-002,6.431345E-002,6.431345E-002,6.431345E-002,
   **   ~~~   ** Air System Named = CENTRAL SYSTEM did not converge for energy
   **   ~~~   ** Check values should be zero. Most Recent values listed first.
   **   ~~~   ** Demand-to-Supply interface energy check value iteration history trace: 1256.815007,1256.815007,1256.815007,1256.815007,1256.815007,1256.815007,1256.815007,1256.815007,1256.815007,1256.815007,
   **   ~~~   ** Supply-to-demand interface deck 1 energy check value iteration history trace: 2271.147291,2271.147291,2271.147291,2271.147290,2271.147290,2271.147290,2271.147290,2271.147290,2271.147290,2271.147290,
   ** Warning ** SimHVAC: Maximum iterations (20) exceeded for all HVAC loops, at ANNUAL, 10/06 06:15 - 06:22
   **   ~~~   ** The solution for one or more of the Air Loop HVAC systems did not appear to converge
   **   ~~~   ** Air System Named = CENTRAL SYSTEM did not converge for mass flow rate
   **   ~~~   ** Check values should be zero. Most Recent values listed first.
   **   ~~~   ** Demand-to-Supply interface mass flow rate check value iteration history trace: 7.074812E-002,7.074812E-002,7.074812E-002,7.074812E-002,7.074812E-002,7.074812E-002,7.074812E-002,7.074812E-002,7.074812E-002,7.074812E-002,
   **   ~~~   ** Supply-to-demand interface deck 1 mass flow rate check value iteration history trace: 7.074812E-002,7.074812E-002,7.074812E-002,7.074812E-002,7.074812E-002,7.074812E-002,7.074812E-002,7.074812E-002,7.074812E-002,7.074812E-002,
   **   ~~~   ** Air System Named = CENTRAL SYSTEM did not converge for energy
   **   ~~~   ** Check values should be zero. Most Recent values listed first.
   **   ~~~   ** Demand-to-Supply interface energy check value iteration history trace: 1401.413121,1401.413121,1401.413121,1401.413121,1401.413121,1401.413121,1401.413121,1401.413121,1401.413121,1401.413121,
   **   ~~~   ** Supply-to-demand interface deck 1 energy check value iteration history trace: 2418.198063,2418.198063,2418.198063,2418.198063,2418.198063,2418.198063,2418.198063,2418.198063,2418.198062,2418.198062,
   ** Warning ** SimHVAC: Maximum iterations (20) exceeded for all HVAC loops, at ANNUAL, 10/28 11:00 - 11:15
   **   ~~~   ** The solution for one or more of the Air Loop HVAC systems did not appear to converge
   **   ~~~   ** Air System Named = CENTRAL SYSTEM did not converge for mass flow rate
   **   ~~~   ** Check values should be zero. Most Recent values listed first.
   **   ~~~   ** Demand-to-Supply interface mass flow rate check value iteration history trace: 6.828929E-002,6.828929E-002,6.828929E-002,6.828929E-002,6.828929E-002,6.828929E-002,6.828929E-002,6.828929E-002,6.828929E-002,6.828929E-002,
   **   ~~~   ** Supply-to-demand interface deck 1 mass flow rate check value iteration history trace: 6.828929E-002,6.828929E-002,6.828929E-002,6.828929E-002,6.828929E-002,6.828929E-002,6.828929E-002,6.828929E-002,6.828929E-002,6.828929E-002,
   **   ~~~   ** Air System Named = CENTRAL SYSTEM did not converge for energy
   **   ~~~   ** Check values should be zero. Most Recent values listed first.
   **   ~~~   ** Demand-to-Supply interface energy check value iteration history trace: 1353.000529,1353.000529,1353.000529,1353.000529,1353.000529,1353.000529,1353.000529,1353.000529,1353.000529,1353.000529,
   **   ~~~   ** Supply-to-demand interface deck 1 energy check value iteration history trace: 2374.917836,2374.917836,2374.917835,2374.917835,2374.917835,2374.917835,2374.917835,2374.917835,2374.917835,2374.917835,
   ** Warning ** SimHVAC: Maximum iterations (20) exceeded for all HVAC loops, at ANNUAL, 12/17 10:30 - 10:45
   **   ~~~   ** The solution for one or more of the Air Loop HVAC systems did not appear to converge
   **   ~~~   ** Air System Named = CENTRAL SYSTEM did not converge for mass flow rate
   **   ~~~   ** Check values should be zero. Most Recent values listed first.
   **   ~~~   ** Demand-to-Supply interface mass flow rate check value iteration history trace: 8.579081E-002,8.579081E-002,8.579081E-002,8.579081E-002,8.579081E-002,8.579081E-002,8.579081E-002,8.579081E-002,8.579081E-002,8.579081E-002,
   **   ~~~   ** Supply-to-demand interface deck 1 mass flow rate check value iteration history trace: 8.579081E-002,8.579081E-002,8.579081E-002,8.579081E-002,8.579081E-002,8.579081E-002,8.579081E-002,8.579081E-002,8.579081E-002,8.579081E-002,
   **   ~~~   ** Air System Named = CENTRAL SYSTEM did not converge for energy
   **   ~~~   ** Check values should be zero. Most Recent values listed first.
   **   ~~~   ** Demand-to-Supply interface energy check value iteration history trace: 1699.804577,1699.804576,1699.804576,1699.804576,1699.804576,1699.804576,1699.804576,1699.804576,1699.804576,1699.804576,
   **   ~~~   ** Supply-to-demand interface deck 1 energy check value iteration history trace: 2874.650229,2874.650229,2874.650229,2874.650228,2874.650228,2874.650228,2874.650228,2874.650228,2874.650228,2874.650228,
   ************* Simulation Error Summary *************
   ** Warning ** The following Report Variables were requested but not generated -- check.rdd file
   **   ~~~   ** Either the IDF did not contain these elements, the variable name is misspelled,
   **   ~~~   ** or the requested variable is an advanced output which requires Output : Diagnostics, DisplayAdvancedReportVariables;
   ************* Key=*, VarName=BASEBOARD TOTAL HEATING ENERGY, Frequency=
   ************* Key=*, VarName=WATER HEATER NATURALGAS ENERGY, Frequency=
   ************* Key=*, VarName=COOLING COIL TOTAL HEATING ENERGY, Frequency=
   ************* There are 34 unused schedules in input.
   ************* There are 388 unused week schedules in input.
   ************* There are 396 unused day schedules in input.
   ************* Use Output:Diagnostics,DisplayUnusedSchedules; to see them.
   *************
   ************* ===== Recurring Error Summary =====
   ************* The following recurring error messages occurred.
   *************
   *************  ** Warning ** "TOTAL HOT WATER LOAD" - Target water temperature should be less than or equal to the hot water temperature error continues...
   *************  **   ~~~   **   This error occurred 85613 total times;
   *************  **   ~~~   **   during Warmup 0 times;
   *************  **   ~~~   **   during Sizing 0 times.
   *************  **   ~~~   **   Max=8.981812  Min=1.886903E-005
   *************
   *************
   ************* ===== Final Error Summary =====
   ************* The following error categories occurred.  Consider correcting or noting.
   ************* Nominally Unused Constructions
   ************* ..The nominally unused constructions warning is provided to alert you to potential conditions that can cause
   ************* ..extra time during simulation. Each construction is calculated by the algorithm indicated in the HeatBalanceAlgorithm
   ************* ..object. You may remove the constructions indicated (when you use the DisplayExtraWarnings option).
   *************
   ************* EnergyPlus Warmup Error Summary. During Warmup: 1 Warning; 0 Severe Errors.
   ************* EnergyPlus Sizing Error Summary. During Sizing: 4 Warning; 0 Severe Errors.
   ************* EnergyPlus Completed Successfully-- 85641 Warning; 0 Severe Errors; Elapsed Time=00hr 04min 25.85sec
