Program Version,EnergyPlus, Version 22.2.0-c249759bad, YMD=2023.09.01 18:58,
   ************* Beginning Zone Sizing Calculations
   ** Warning ** ProcessScheduleInput: Schedule:Constant="ALWAYS ON DISCRETE", Schedule Type Limits Name="ONOFF" not found -- will not be validated
   ** Warning ** Foundation:Kiva="KIVA FOUNDATION", no Interior Horizontal Insulation Material Name defined
   **   ~~~   ** Interior Horizontal Insulation Depth will not be used.
   ** Warning ** CheckUsedConstructions: There are 15 nominally unused constructions in input.
   **   ~~~   ** Each Unused construction is shown.
   ************* Construction=INTERIOR FLOOR
   ************* Construction=INTERIOR WINDOW
   ************* Construction=EXTERIOR DOOR
   ************* Construction=INTERIOR DOOR
   ************* Construction=GABLE CONSTRUCTION
   ************* Construction=CRAWL_FLOOR
   ************* Construction=INSULATED PIPE
   ************* Construction=PLAIN PIPE
   ************* Construction=TDD PIPE
   ************* Construction=TDD DOME
   ************* Construction=TDD DIFFUSER
   ************* Construction=CRAWL WALL
   ************* Construction=CEILING-FLOOR-LAYER
   ************* Construction=SLAB CONSTRUCTION W FULL R10 INSULATION
   ************* Construction=SLAB CONSTRUCTION W FULL R5 INSULATION
   ** Warning ** GetDXCoils: Coil:Heating:DX:SingleSpeed="DX_HEATING_COIL" curve values
   **   ~~~   ** ... Defrost Energy Input Ratio Function of Temperature Curve Name = DEFROSTEIR output is not equal to 1.0 (+ or - 10%) at rated conditions.
   **   ~~~   ** ... Curve output at rated conditions = 0.152
   ************* Beginning System Sizing Calculations
   ************* Beginning Plant Sizing Calculations
   ** Warning ** SizeDXCoil Coil:Cooling:DX:SingleSpeed DX_COOLING_COIL
   **   ~~~   ** ...Gross Rated Total Cooling Capacity [W] will be limited by the maximum rated volume flow per rated total capacity ratio.
   **   ~~~   ** ...DX coil volume flow rate ( m3/s ) = 0.535656
   **   ~~~   ** ...Requested capacity ( W ) = 7147.974
   **   ~~~   ** ...Requested flow/capacity ratio ( m3/s/W ) = 7.493E-005
   **   ~~~   ** ...Maximum flow/capacity ratio ( m3/s/W ) = 6.041E-005
   **   ~~~   ** ...Adjusted capacity ( W ) = 8867.008
   ** Warning ** Coil:WaterHeating:AirToWaterHeatPump:Wrapped "HEAT PUMP WATER HEATER EVAPORATOR": Rated air volume flow rate per watt of rated total water heating capacity is out of range
   **   ~~~   ** Min Rated Vol Flow Per Watt=[4.027E-005], Rated Vol Flow Per Watt=[1.510E-004], Max Rated Vol Flow Per Watt=[8.056E-005]. See Input-Output Reference Manual for valid range.
   ************* SizeFan: : Potential issue with equipment sizing for Fan:OnOff HEAT PUMP WATER HEATER FAN
   **   ~~~   ** User-Specified Maximum Flow Rate [m3/s] = 0.22653
   **   ~~~   ** differs from Design Size Maximum Flow Rate [m3/s] = 7.55250E-002
   **   ~~~   ** This may, or may not, indicate mismatched component sizes.
   **   ~~~   ** Verify that the value entered is intended and is consistent with other components.
   ** Warning ** Water heater = WATER HEATER TANK:  Recovery Efficiency and Energy Factor could not be calculated during the test for standard ratings
   **   ~~~   ** Setpoint was never recovered and/or heater never turned on
   ** Warning ** Check input. Pump nominal power or motor efficiency is set to 0, for pump=MAINS PRESSURE
   ** Warning ** Output:Meter: invalid Key Name="ELECTRIC_RANGE:INTERIOREQUIPMENT:ELECTRICITY" - not found.
   ** Warning ** Output:Meter: invalid Key Name="ELECTRIC_DRYER:INTERIOREQUIPMENT:ELECTRICITY" - not found.
   ** Warning ** Output:Meter: invalid Key Name="HEATRECOVERY:ELECTRICITY" - not found.
   ** Warning ** Output:Meter: invalid Key Name="HEATING:NATURALGAS" - not found.
   ** Warning ** Output:Meter: invalid Key Name="WATERSYSTEMS:NATURALGAS" - not found.
   ** Warning ** Output:Meter: invalid Key Name="PROPANE:FACILITY" - not found.
   ** Warning ** Output:Meter: invalid Key Name="HEATING:PROPANE" - not found.
   ************* Testing Individual Branch Integrity
   ************* All Branches passed integrity testing
   ************* Testing Individual Supply Air Path Integrity
   ************* All Supply Air Paths passed integrity testing
   ************* Testing Individual Return Air Path Integrity
   ************* All Return Air Paths passed integrity testing
   ************* No node connection errors were found.
   ************* Beginning Simulation
   ** Warning ** AirflowNetwork::Solver::validate_distribution: Heat pump water heater is simulated along with an AirflowNetwork but is not included in the AirflowNetwork.
   ** Warning ** CalcEquipmentFlowRates: "TOTAL HOT WATER LOAD" - Target water temperature is greater than the hot water temperature by (0.82 C)
   **   ~~~   **  Environment=EXTREME_WINTER, at Simulation time=12/22 03:45 - 04:00
   **   ~~~   ** ...target water temperature     = 53.33 C
   **   ~~~   ** ...hot water temperature        = 52.52 C
   **   ~~~   ** ...Target water temperature should be less than or equal to the hot water temperature. Verify temperature setpoints and schedules.
   ** Warning ** SimHVAC: Maximum iterations (20) exceeded for all HVAC loops, at EXTREME_WINTER, 12/28 13:15 - 13:20
   **   ~~~   ** The solution for one or more of the Air Loop HVAC systems did not appear to converge
   **   ~~~   ** Air System Named = CENTRAL SYSTEM did not converge for mass flow rate
   **   ~~~   ** Check values should be zero. Most Recent values listed first.
   **   ~~~   ** Demand-to-Supply interface mass flow rate check value iteration history trace: 6.969601E-002,6.969601E-002,6.969601E-002,6.969601E-002,6.969601E-002,6.969601E-002,6.969601E-002,6.969601E-002,6.969601E-002,6.969601E-002,
   **   ~~~   ** Supply-to-demand interface deck 1 mass flow rate check value iteration history trace: 6.969601E-002,6.969601E-002,6.969601E-002,6.969601E-002,6.969601E-002,6.969601E-002,6.969601E-002,6.969601E-002,6.969601E-002,6.969601E-002,
   **   ~~~   ** Air System Named = CENTRAL SYSTEM did not converge for energy
   **   ~~~   ** Check values should be zero. Most Recent values listed first.
   **   ~~~   ** Demand-to-Supply interface energy check value iteration history trace: 1381.158951,1381.158951,1381.158951,1381.158951,1381.158951,1381.158951,1381.158951,1381.158951,1381.158951,1381.158951,
   **   ~~~   ** Supply-to-demand interface deck 1 energy check value iteration history trace: 2274.143393,2274.143392,2274.143392,2274.143392,2274.143392,2274.143392,2274.143392,2274.143392,2274.143392,2274.143392,
   ** Warning ** SimHVAC: Maximum iterations (20) exceeded for all HVAC loops, at ANNUAL, 01/02 10:30 - 10:33
   **   ~~~   ** The solution for one or more of the Air Loop HVAC systems did not appear to converge
   **   ~~~   ** Air System Named = CENTRAL SYSTEM did not converge for mass flow rate
   **   ~~~   ** Check values should be zero. Most Recent values listed first.
   **   ~~~   ** Demand-to-Supply interface mass flow rate check value iteration history trace: 1.993189E-002,1.993189E-002,1.993189E-002,1.993189E-002,1.993189E-002,1.993189E-002,1.993189E-002,1.993189E-002,1.993189E-002,1.993189E-002,
   **   ~~~   ** Supply-to-demand interface deck 1 mass flow rate check value iteration history trace: 1.993189E-002,1.993189E-002,1.993189E-002,1.993189E-002,1.993189E-002,1.993189E-002,1.993189E-002,1.993189E-002,1.993189E-002,1.993189E-002,
   **   ~~~   ** Air System Named = CENTRAL SYSTEM did not converge for energy
   **   ~~~   ** Check values should be zero. Most Recent values listed first.
   **   ~~~   ** Demand-to-Supply interface energy check value iteration history trace: 394.983545,394.983545,394.983545,394.983545,394.983545,394.983545,394.983545,394.983545,394.983545,394.983545,
   **   ~~~   ** Supply-to-demand interface deck 1 energy check value iteration history trace: 635.465161,635.465161,635.465161,635.465161,635.465161,635.465160,635.465160,635.465160,635.465160,635.465160,
   ** Warning ** SimHVAC: Maximum iterations (20) exceeded for all HVAC loops, at ANNUAL, 01/21 10:45 - 10:47
   **   ~~~   ** The solution for one or more of the Air Loop HVAC systems did not appear to converge
   **   ~~~   ** Air System Named = CENTRAL SYSTEM did not converge for mass flow rate
   **   ~~~   ** Check values should be zero. Most Recent values listed first.
   **   ~~~   ** Demand-to-Supply interface mass flow rate check value iteration history trace: 8.273367E-002,8.273367E-002,8.273367E-002,8.273367E-002,8.273367E-002,8.273367E-002,8.273367E-002,8.273367E-002,8.273367E-002,8.273367E-002,
   **   ~~~   ** Supply-to-demand interface deck 1 mass flow rate check value iteration history trace: 8.273367E-002,8.273367E-002,8.273367E-002,8.273367E-002,8.273367E-002,8.273367E-002,8.273367E-002,8.273367E-002,8.273367E-002,8.273367E-002,
   **   ~~~   ** Air System Named = CENTRAL SYSTEM did not converge for energy
   **   ~~~   ** Check values should be zero. Most Recent values listed first.
   **   ~~~   ** Demand-to-Supply interface energy check value iteration history trace: 1639.544690,1639.544690,1639.544690,1639.544690,1639.544690,1639.544690,1639.544690,1639.544690,1639.544690,1639.544690,
   **   ~~~   ** Supply-to-demand interface deck 1 energy check value iteration history trace: 2546.919397,2546.919397,2546.919397,2546.919397,2546.919397,2546.919397,2546.919396,2546.919396,2546.919396,2546.919396,
   ** Warning ** SimHVAC: Maximum iterations (20) exceeded for all HVAC loops, at ANNUAL, 01/30 17:45 - 18:00
   **   ~~~   ** The solution for one or more of the Air Loop HVAC systems did not appear to converge
   **   ~~~   ** Air System Named = CENTRAL SYSTEM did not converge for mass flow rate
   **   ~~~   ** Check values should be zero. Most Recent values listed first.
   **   ~~~   ** Demand-to-Supply interface mass flow rate check value iteration history trace: 5.058059E-002,5.058059E-002,5.058059E-002,5.058059E-002,5.058059E-002,5.058059E-002,5.058059E-002,5.058059E-002,5.058059E-002,5.058059E-002,
   **   ~~~   ** Supply-to-demand interface deck 1 mass flow rate check value iteration history trace: 5.058059E-002,5.058059E-002,5.058059E-002,5.058059E-002,5.058059E-002,5.058059E-002,5.058059E-002,5.058059E-002,5.058059E-002,5.058059E-002,
   **   ~~~   ** Air System Named = CENTRAL SYSTEM did not converge for energy
   **   ~~~   ** Check values should be zero. Most Recent values listed first.
   **   ~~~   ** Demand-to-Supply interface energy check value iteration history trace: 985.143597,985.143597,985.143597,985.143597,985.143597,985.143597,985.143597,985.143597,985.143597,985.143597,
   **   ~~~   ** Supply-to-demand interface deck 1 energy check value iteration history trace: 1786.817040,1786.817040,1786.817040,1786.817040,1786.817040,1786.817040,1786.817040,1786.817039,1786.817039,1786.817039,
   ** Warning ** SimHVAC: Maximum iterations (20) exceeded for all HVAC loops, at ANNUAL, 02/01 10:45 - 11:00
   **   ~~~   ** The solution for one or more of the Air Loop HVAC systems did not appear to converge
   **   ~~~   ** Air System Named = CENTRAL SYSTEM did not converge for mass flow rate
   **   ~~~   ** Check values should be zero. Most Recent values listed first.
   **   ~~~   ** Demand-to-Supply interface mass flow rate check value iteration history trace: 5.976205E-002,5.976205E-002,5.976205E-002,5.976205E-002,5.976205E-002,5.976205E-002,5.976205E-002,5.976205E-002,5.976205E-002,5.976205E-002,
   **   ~~~   ** Supply-to-demand interface deck 1 mass flow rate check value iteration history trace: 5.976205E-002,5.976205E-002,5.976205E-002,5.976205E-002,5.976205E-002,5.976205E-002,5.976205E-002,5.976205E-002,5.976205E-002,5.976205E-002,
   **   ~~~   ** Air System Named = CENTRAL SYSTEM did not converge for energy
   **   ~~~   ** Check values should be zero. Most Recent values listed first.
   **   ~~~   ** Demand-to-Supply interface energy check value iteration history trace: 1184.325396,1184.325396,1184.325396,1184.325396,1184.325396,1184.325396,1184.325396,1184.325395,1184.325395,1184.325395,
   **   ~~~   ** Supply-to-demand interface deck 1 energy check value iteration history trace: 1876.058519,1876.058519,1876.058519,1876.058519,1876.058518,1876.058518,1876.058518,1876.058518,1876.058518,1876.058518,
   ** Warning ** SimHVAC: Maximum iterations (20) exceeded for all HVAC loops, at ANNUAL, 02/01 10:45 - 10:47
   **   ~~~   ** The solution for one or more of the Air Loop HVAC systems did not appear to converge
   **   ~~~   ** Air System Named = CENTRAL SYSTEM did not converge for mass flow rate
   **   ~~~   ** Check values should be zero. Most Recent values listed first.
   **   ~~~   ** Demand-to-Supply interface mass flow rate check value iteration history trace: 6.089481E-002,6.089481E-002,6.089481E-002,6.089481E-002,6.089481E-002,6.089481E-002,6.089481E-002,6.089481E-002,6.089481E-002,6.089481E-002,
   **   ~~~   ** Supply-to-demand interface deck 1 mass flow rate check value iteration history trace: 6.089481E-002,6.089481E-002,6.089481E-002,6.089481E-002,6.089481E-002,6.089481E-002,6.089481E-002,6.089481E-002,6.089481E-002,6.089481E-002,
   **   ~~~   ** Air System Named = CENTRAL SYSTEM did not converge for energy
   **   ~~~   ** Check values should be zero. Most Recent values listed first.
   **   ~~~   ** Demand-to-Supply interface energy check value iteration history trace: 1206.764397,1206.764397,1206.764397,1206.764397,1206.764397,1206.764397,1206.764397,1206.764396,1206.764396,1206.764396,
   **   ~~~   ** Supply-to-demand interface deck 1 energy check value iteration history trace: 1911.610443,1911.610442,1911.610442,1911.610442,1911.610442,1911.610442,1911.610442,1911.610442,1911.610442,1911.610442,
   ** Warning ** SimHVAC: Maximum iterations (20) exceeded for all HVAC loops, at ANNUAL, 02/09 12:45 - 13:00
   **   ~~~   ** The solution for one or more of the Air Loop HVAC systems did not appear to converge
   **   ~~~   ** Air System Named = CENTRAL SYSTEM did not converge for mass flow rate
   **   ~~~   ** Check values should be zero. Most Recent values listed first.
   **   ~~~   ** Demand-to-Supply interface mass flow rate check value iteration history trace: 2.148045E-002,2.148045E-002,2.148045E-002,2.148045E-002,2.148045E-002,2.148045E-002,2.148045E-002,2.148045E-002,2.148045E-002,2.148045E-002,
   **   ~~~   ** Supply-to-demand interface deck 1 mass flow rate check value iteration history trace: 2.148045E-002,2.148045E-002,2.148045E-002,2.148045E-002,2.148045E-002,2.148045E-002,2.148045E-002,2.148045E-002,2.148045E-002,2.148045E-002,
   **   ~~~   ** Air System Named = CENTRAL SYSTEM did not converge for energy
   **   ~~~   ** Check values should be zero. Most Recent values listed first.
   **   ~~~   ** Demand-to-Supply interface energy check value iteration history trace: 425.669040,425.669040,425.669040,425.669040,425.669040,425.669040,425.669040,425.669040,425.669040,425.669040,
   **   ~~~   ** Supply-to-demand interface deck 1 energy check value iteration history trace: 792.800059,792.800059,792.800059,792.800059,792.800059,792.800059,792.800059,792.800059,792.800059,792.800059,
   ** Warning ** SimHVAC: Maximum iterations (20) exceeded for all HVAC loops, at ANNUAL, 02/22 18:30 - 18:45
   **   ~~~   ** The solution for one or more of the Air Loop HVAC systems did not appear to converge
   **   ~~~   ** Air System Named = CENTRAL SYSTEM did not converge for mass flow rate
   **   ~~~   ** Check values should be zero. Most Recent values listed first.
   **   ~~~   ** Demand-to-Supply interface mass flow rate check value iteration history trace: 5.829420E-002,5.829420E-002,5.829420E-002,5.829420E-002,5.829420E-002,5.829420E-002,5.829420E-002,5.829420E-002,5.829420E-002,5.829420E-002,
   **   ~~~   ** Supply-to-demand interface deck 1 mass flow rate check value iteration history trace: 5.829420E-002,5.829420E-002,5.829420E-002,5.829420E-002,5.829420E-002,5.829420E-002,5.829420E-002,5.829420E-002,5.829420E-002,5.829420E-002,
   **   ~~~   ** Air System Named = CENTRAL SYSTEM did not converge for energy
   **   ~~~   ** Check values should be zero. Most Recent values listed first.
   **   ~~~   ** Demand-to-Supply interface energy check value iteration history trace: 1153.743436,1153.743436,1153.743436,1153.743436,1153.743436,1153.743436,1153.743436,1153.743436,1153.743436,1153.743436,
   **   ~~~   ** Supply-to-demand interface deck 1 energy check value iteration history trace: 1851.421678,1851.421677,1851.421677,1851.421677,1851.421677,1851.421677,1851.421677,1851.421677,1851.421677,1851.421676,
   ** Warning ** SimHVAC: Maximum iterations (20) exceeded for all HVAC loops, at ANNUAL, 02/22 18:35 - 18:40
   **   ~~~   ** The solution for one or more of the Air Loop HVAC systems did not appear to converge
   **   ~~~   ** Air System Named = CENTRAL SYSTEM did not converge for mass flow rate
   **   ~~~   ** Check values should be zero. Most Recent values listed first.
   **   ~~~   ** Demand-to-Supply interface mass flow rate check value iteration history trace: 5.818554E-002,5.818554E-002,5.818554E-002,5.818554E-002,5.818554E-002,5.818554E-002,5.818554E-002,5.818554E-002,5.818554E-002,5.818554E-002,
   **   ~~~   ** Supply-to-demand interface deck 1 mass flow rate check value iteration history trace: 5.818554E-002,5.818554E-002,5.818554E-002,5.818554E-002,5.818554E-002,5.818554E-002,5.818554E-002,5.818554E-002,5.818554E-002,5.818554E-002,
   **   ~~~   ** Air System Named = CENTRAL SYSTEM did not converge for energy
   **   ~~~   ** Check values should be zero. Most Recent values listed first.
   **   ~~~   ** Demand-to-Supply interface energy check value iteration history trace: 1152.713118,1152.713118,1152.713118,1152.713118,1152.713118,1152.713117,1152.713117,1152.713117,1152.713117,1152.713117,
   **   ~~~   ** Supply-to-demand interface deck 1 energy check value iteration history trace: 1849.020839,1849.020839,1849.020839,1849.020838,1849.020838,1849.020838,1849.020838,1849.020838,1849.020838,1849.020838,
   ** Warning ** SimHVAC: Maximum iterations (20) exceeded for all HVAC loops, at ANNUAL, 03/19 08:38 - 08:39
   **   ~~~   ** The solution for one or more of the Air Loop HVAC systems did not appear to converge
   **   ~~~   ** Air System Named = CENTRAL SYSTEM did not converge for mass flow rate
   **   ~~~   ** Check values should be zero. Most Recent values listed first.
   **   ~~~   ** Demand-to-Supply interface mass flow rate check value iteration history trace: 4.330020E-002,4.330020E-002,4.330020E-002,4.330020E-002,4.330020E-002,4.330020E-002,4.330020E-002,4.330020E-002,4.330020E-002,4.330020E-002,
   **   ~~~   ** Supply-to-demand interface deck 1 mass flow rate check value iteration history trace: 4.330020E-002,4.330020E-002,4.330020E-002,4.330020E-002,4.330020E-002,4.330020E-002,4.330020E-002,4.330020E-002,4.330020E-002,4.330020E-002,
   **   ~~~   ** Air System Named = CENTRAL SYSTEM did not converge for energy
   **   ~~~   ** Check values should be zero. Most Recent values listed first.
   **   ~~~   ** Demand-to-Supply interface energy check value iteration history trace: 856.970676,856.970676,856.970676,856.970676,856.970676,856.970676,856.970676,856.970676,856.970676,856.970676,
   **   ~~~   ** Supply-to-demand interface deck 1 energy check value iteration history trace: 1536.338650,1536.338650,1536.338650,1536.338650,1536.338650,1536.338650,1536.338650,1536.338650,1536.338650,1536.338650,
   ** Warning ** SimHVAC: Maximum iterations (20) exceeded for all HVAC loops, at ANNUAL, 03/21 07:15 - 07:19
   **   ~~~   ** The solution for one or more of the Air Loop HVAC systems did not appear to converge
   **   ~~~   ** Air System Named = CENTRAL SYSTEM did not converge for mass flow rate
   **   ~~~   ** Check values should be zero. Most Recent values listed first.
   **   ~~~   ** Demand-to-Supply interface mass flow rate check value iteration history trace: 5.375848E-002,5.375848E-002,5.375848E-002,5.375848E-002,5.375848E-002,5.375848E-002,5.375848E-002,5.375848E-002,5.375848E-002,5.375848E-002,
   **   ~~~   ** Supply-to-demand interface deck 1 mass flow rate check value iteration history trace: 5.375848E-002,5.375848E-002,5.375848E-002,5.375848E-002,5.375848E-002,5.375848E-002,5.375848E-002,5.375848E-002,5.375848E-002,5.375848E-002,
   **   ~~~   ** Air System Named = CENTRAL SYSTEM did not converge for energy
   **   ~~~   ** Check values should be zero. Most Recent values listed first.
   **   ~~~   ** Demand-to-Supply interface energy check value iteration history trace: 1065.202746,1065.202746,1065.202746,1065.202746,1065.202746,1065.202746,1065.202746,1065.202746,1065.202746,1065.202746,
   **   ~~~   ** Supply-to-demand interface deck 1 energy check value iteration history trace: 1905.027368,1905.027368,1905.027368,1905.027368,1905.027368,1905.027368,1905.027368,1905.027368,1905.027368,1905.027367,
   ** Warning ** SimHVAC: Maximum iterations (20) exceeded for all HVAC loops, at ANNUAL, 04/05 08:58 - 09:00
   **   ~~~   ** The solution for one or more of the Air Loop HVAC systems did not appear to converge
   **   ~~~   ** Air System Named = CENTRAL SYSTEM did not converge for mass flow rate
   **   ~~~   ** Check values should be zero. Most Recent values listed first.
   **   ~~~   ** Demand-to-Supply interface mass flow rate check value iteration history trace: 5.334008E-002,5.334008E-002,5.334008E-002,5.334008E-002,5.334008E-002,5.334008E-002,5.334008E-002,5.334008E-002,5.334008E-002,5.334008E-002,
   **   ~~~   ** Supply-to-demand interface deck 1 mass flow rate check value iteration history trace: 5.334008E-002,5.334008E-002,5.334008E-002,5.334008E-002,5.334008E-002,5.334008E-002,5.334008E-002,5.334008E-002,5.334008E-002,5.334008E-002,
   **   ~~~   ** Air System Named = CENTRAL SYSTEM did not converge for energy
   **   ~~~   ** Check values should be zero. Most Recent values listed first.
   **   ~~~   ** Demand-to-Supply interface energy check value iteration history trace: 1052.764981,1052.764981,1052.764981,1052.764981,1052.764981,1052.764981,1052.764981,1052.764981,1052.764981,1052.764981,
   **   ~~~   ** Supply-to-demand interface deck 1 energy check value iteration history trace: 2015.692553,2015.692553,2015.692553,2015.692553,2015.692553,2015.692553,2015.692553,2015.692553,2015.692553,2015.692553,
   ** Warning ** SimHVAC: Maximum iterations (20) exceeded for all HVAC loops, at ANNUAL, 04/14 06:53 - 06:56
   **   ~~~   ** The solution for one or more of the Air Loop HVAC systems did not appear to converge
   **   ~~~   ** Air System Named = CENTRAL SYSTEM did not converge for mass flow rate
   **   ~~~   ** Check values should be zero. Most Recent values listed first.
   **   ~~~   ** Demand-to-Supply interface mass flow rate check value iteration history trace: 1.153336E-002,1.153336E-002,1.153336E-002,1.153336E-002,1.153336E-002,1.153336E-002,1.153336E-002,1.153336E-002,1.153336E-002,1.153336E-002,
   **   ~~~   ** Supply-to-demand interface deck 1 mass flow rate check value iteration history trace: 1.153336E-002,1.153336E-002,1.153336E-002,1.153336E-002,1.153336E-002,1.153336E-002,1.153336E-002,1.153336E-002,1.153336E-002,1.153336E-002,
   **   ~~~   ** Air System Named = CENTRAL SYSTEM did not converge for energy
   **   ~~~   ** Check values should be zero. Most Recent values listed first.
   **   ~~~   ** Demand-to-Supply interface energy check value iteration history trace: 227.022399,227.022399,227.022399,227.022399,227.022399,227.022399,227.022399,227.022399,227.022399,227.022399,
   **   ~~~   ** Supply-to-demand interface deck 1 energy check value iteration history trace: 424.709520,424.709520,424.709520,424.709520,424.709520,424.709520,424.709520,424.709520,424.709520,424.709519,
   ** Warning ** SimHVAC: Maximum iterations (20) exceeded for all HVAC loops, at ANNUAL, 05/24 18:53 - 18:56
   **   ~~~   ** The solution for one or more of the Air Loop HVAC systems did not appear to converge
   **   ~~~   ** Air System Named = CENTRAL SYSTEM did not converge for mass flow rate
   **   ~~~   ** Check values should be zero. Most Recent values listed first.
   **   ~~~   ** Demand-to-Supply interface mass flow rate check value iteration history trace: 0.221988,0.221988,0.221988,0.221988,0.221988,0.221988,0.221988,0.221988,0.221988,0.221988,
   **   ~~~   ** Supply-to-demand interface deck 1 mass flow rate check value iteration history trace: 0.221988,0.221988,0.221988,0.221988,0.221988,0.221988,0.221988,0.221988,0.221988,0.221988,
   **   ~~~   ** Air System Named = CENTRAL SYSTEM did not converge for energy
   **   ~~~   ** Check values should be zero. Most Recent values listed first.
   **   ~~~   ** Demand-to-Supply interface energy check value iteration history trace: 5326.356312,5326.356313,5326.356313,5326.356313,5326.356313,5326.356314,5326.356314,5326.356314,5326.356314,5326.356315,
   **   ~~~   ** Supply-to-demand interface deck 1 energy check value iteration history trace: 1915.712760,1915.712760,1915.712760,1915.712760,1915.712760,1915.712760,1915.712760,1915.712761,1915.712761,1915.712761,
   ************* Simulation Error Summary *************
   ** Warning ** The following Report Variables were requested but not generated -- check.rdd file
   **   ~~~   ** Either the IDF did not contain these elements, the variable name is misspelled,
   **   ~~~   ** or the requested variable is an advanced output which requires Output : Diagnostics, DisplayAdvancedReportVariables;
   ************* Key=*, VarName=BASEBOARD TOTAL HEATING ENERGY, Frequency=
   ************* Key=*, VarName=WATER HEATER NATURALGAS ENERGY, Frequency=
   ************* Key=*, VarName=COOLING COIL TOTAL HEATING ENERGY, Frequency=
   ************* There are 34 unused schedules in input.
   ************* There are 388 unused week schedules in input.
   ************* There are 396 unused day schedules in input.
   ************* Use Output:Diagnostics,DisplayUnusedSchedules; to see them.
   *************
   ************* ===== Recurring Error Summary =====
   ************* The following recurring error messages occurred.
   *************
   *************  ** Warning ** "TOTAL HOT WATER LOAD" - Target water temperature should be less than or equal to the hot water temperature error continues...
   *************  **   ~~~   **   This error occurred 79645 total times;
   *************  **   ~~~   **   during Warmup 0 times;
   *************  **   ~~~   **   during Sizing 0 times.
   *************  **   ~~~   **   Max=6.22175  Min=7.600115E-005
   *************
   *************  ** Warning ** SimHVAC: Exceeding Maximum iterations for all HVAC loops, during ANNUAL continues
   *************  **   ~~~   **   This error occurred 8 total times;
   *************  **   ~~~   **   during Warmup 0 times;
   *************  **   ~~~   **   during Sizing 0 times.
   *************
   *************
   ************* ===== Final Error Summary =====
   ************* The following error categories occurred.  Consider correcting or noting.
   ************* Nominally Unused Constructions
   ************* ..The nominally unused constructions warning is provided to alert you to potential conditions that can cause
   ************* ..extra time during simulation. Each construction is calculated by the algorithm indicated in the HeatBalanceAlgorithm
   ************* ..object. You may remove the constructions indicated (when you use the DisplayExtraWarnings option).
   *************
   ************* EnergyPlus Warmup Error Summary. During Warmup: 1 Warning; 0 Severe Errors.
   ************* EnergyPlus Sizing Error Summary. During Sizing: 4 Warning; 0 Severe Errors.
   ************* EnergyPlus Completed Successfully-- 79685 Warning; 0 Severe Errors; Elapsed Time=00hr 01min 48.94sec
