Program Version,EnergyPlus, Version 22.2.0-c249759bad, YMD=2023.09.01 19:26,
   ************* Beginning Zone Sizing Calculations
   ** Warning ** ProcessScheduleInput: Schedule:Constant="ALWAYS ON DISCRETE", Schedule Type Limits Name="ONOFF" not found -- will not be validated
   ** Warning ** Foundation:Kiva="KIVA FOUNDATION", no Interior Horizontal Insulation Material Name defined
   **   ~~~   ** Interior Horizontal Insulation Depth will not be used.
   ** Warning ** CheckUsedConstructions: There are 15 nominally unused constructions in input.
   **   ~~~   ** Each Unused construction is shown.
   ************* Construction=INTERIOR FLOOR
   ************* Construction=INTERIOR WINDOW
   ************* Construction=EXTERIOR DOOR
   ************* Construction=INTERIOR DOOR
   ************* Construction=GABLE CONSTRUCTION
   ************* Construction=CRAWL_FLOOR
   ************* Construction=INSULATED PIPE
   ************* Construction=PLAIN PIPE
   ************* Construction=TDD PIPE
   ************* Construction=TDD DOME
   ************* Construction=TDD DIFFUSER
   ************* Construction=CRAWL WALL
   ************* Construction=CEILING-FLOOR-LAYER
   ************* Construction=SLAB CONSTRUCTION W FULL R10 INSULATION
   ************* Construction=SLAB CONSTRUCTION W FULL R5 INSULATION
   ** Warning ** GetDXCoils: Coil:Heating:DX:SingleSpeed="DX_HEATING_COIL" curve values
   **   ~~~   ** ... Defrost Energy Input Ratio Function of Temperature Curve Name = DEFROSTEIR output is not equal to 1.0 (+ or - 10%) at rated conditions.
   **   ~~~   ** ... Curve output at rated conditions = 0.152
   ************* Beginning System Sizing Calculations
   ************* Beginning Plant Sizing Calculations
   ** Warning ** Coil:WaterHeating:AirToWaterHeatPump:Wrapped "HEAT PUMP WATER HEATER EVAPORATOR": Rated air volume flow rate per watt of rated total water heating capacity is out of range
   **   ~~~   ** Min Rated Vol Flow Per Watt=[4.027E-005], Rated Vol Flow Per Watt=[1.510E-004], Max Rated Vol Flow Per Watt=[8.056E-005]. See Input-Output Reference Manual for valid range.
   ************* SizeFan: : Potential issue with equipment sizing for Fan:OnOff HEAT PUMP WATER HEATER FAN
   **   ~~~   ** User-Specified Maximum Flow Rate [m3/s] = 0.22653
   **   ~~~   ** differs from Design Size Maximum Flow Rate [m3/s] = 7.55250E-002
   **   ~~~   ** This may, or may not, indicate mismatched component sizes.
   **   ~~~   ** Verify that the value entered is intended and is consistent with other components.
   ** Warning ** Water heater = WATER HEATER TANK:  Recovery Efficiency and Energy Factor could not be calculated during the test for standard ratings
   **   ~~~   ** Setpoint was never recovered and/or heater never turned on
   ** Warning ** Check input. Pump nominal power or motor efficiency is set to 0, for pump=MAINS PRESSURE
   ** Warning ** Output:Meter: invalid Key Name="ELECTRIC_RANGE:INTERIOREQUIPMENT:ELECTRICITY" - not found.
   ** Warning ** Output:Meter: invalid Key Name="ELECTRIC_DRYER:INTERIOREQUIPMENT:ELECTRICITY" - not found.
   ** Warning ** Output:Meter: invalid Key Name="HEATRECOVERY:ELECTRICITY" - not found.
   ** Warning ** Output:Meter: invalid Key Name="HEATING:NATURALGAS" - not found.
   ** Warning ** Output:Meter: invalid Key Name="WATERSYSTEMS:NATURALGAS" - not found.
   ** Warning ** Output:Meter: invalid Key Name="PROPANE:FACILITY" - not found.
   ** Warning ** Output:Meter: invalid Key Name="HEATING:PROPANE" - not found.
   ************* Testing Individual Branch Integrity
   ************* All Branches passed integrity testing
   ************* Testing Individual Supply Air Path Integrity
   ************* All Supply Air Paths passed integrity testing
   ************* Testing Individual Return Air Path Integrity
   ************* All Return Air Paths passed integrity testing
   ************* No node connection errors were found.
   ************* Beginning Simulation
   ** Warning ** AirflowNetwork::Solver::validate_distribution: Heat pump water heater is simulated along with an AirflowNetwork but is not included in the AirflowNetwork.
   ** Warning ** CalcEquipmentFlowRates: "TOTAL HOT WATER LOAD" - Target water temperature is greater than the hot water temperature by (0.65 C)
   **   ~~~   **  Environment=EXTREME_WINTER, at Simulation time=01/27 06:00 - 06:15
   **   ~~~   ** ...target water temperature     = 53.33 C
   **   ~~~   ** ...hot water temperature        = 52.68 C
   **   ~~~   ** ...Target water temperature should be less than or equal to the hot water temperature. Verify temperature setpoints and schedules.
   ** Warning ** SimHVAC: Maximum iterations (20) exceeded for all HVAC loops, at ANNUAL, 01/22 09:45 - 09:48
   **   ~~~   ** The solution for one or more of the Air Loop HVAC systems did not appear to converge
   **   ~~~   ** Air System Named = CENTRAL SYSTEM did not converge for mass flow rate
   **   ~~~   ** Check values should be zero. Most Recent values listed first.
   **   ~~~   ** Demand-to-Supply interface mass flow rate check value iteration history trace: 5.850995E-002,5.850995E-002,5.850995E-002,5.850995E-002,5.850995E-002,5.850995E-002,5.850995E-002,5.850995E-002,5.850995E-002,5.850995E-002,
   **   ~~~   ** Supply-to-demand interface deck 1 mass flow rate check value iteration history trace: 5.850995E-002,5.850995E-002,5.850995E-002,5.850995E-002,5.850995E-002,5.850995E-002,5.850995E-002,5.850995E-002,5.850995E-002,5.850995E-002,
   **   ~~~   ** Air System Named = CENTRAL SYSTEM did not converge for energy
   **   ~~~   ** Check values should be zero. Most Recent values listed first.
   **   ~~~   ** Demand-to-Supply interface energy check value iteration history trace: 1155.552002,1155.552002,1155.552002,1155.552002,1155.552002,1155.552002,1155.552002,1155.552002,1155.552002,1155.552002,
   **   ~~~   ** Supply-to-demand interface deck 1 energy check value iteration history trace: 2070.721058,2070.721058,2070.721058,2070.721058,2070.721058,2070.721057,2070.721057,2070.721057,2070.721057,2070.721057,
   ** Warning ** SimHVAC: Maximum iterations (20) exceeded for all HVAC loops, at ANNUAL, 01/26 06:53 - 07:00
   **   ~~~   ** The solution for one or more of the Air Loop HVAC systems did not appear to converge
   **   ~~~   ** Air System Named = CENTRAL SYSTEM did not converge for mass flow rate
   **   ~~~   ** Check values should be zero. Most Recent values listed first.
   **   ~~~   ** Demand-to-Supply interface mass flow rate check value iteration history trace: 5.960238E-002,5.960238E-002,5.960238E-002,5.960238E-002,5.960238E-002,5.960238E-002,5.960238E-002,5.960238E-002,5.960238E-002,5.960238E-002,
   **   ~~~   ** Supply-to-demand interface deck 1 mass flow rate check value iteration history trace: 5.960238E-002,5.960238E-002,5.960238E-002,5.960238E-002,5.960238E-002,5.960238E-002,5.960238E-002,5.960238E-002,5.960238E-002,5.960238E-002,
   **   ~~~   ** Air System Named = CENTRAL SYSTEM did not converge for energy
   **   ~~~   ** Check values should be zero. Most Recent values listed first.
   **   ~~~   ** Demand-to-Supply interface energy check value iteration history trace: 1189.847177,1189.847177,1189.847177,1189.847177,1189.847177,1189.847177,1189.847177,1189.847176,1189.847176,1189.847176,
   **   ~~~   ** Supply-to-demand interface deck 1 energy check value iteration history trace: 2060.826373,2060.826373,2060.826373,2060.826373,2060.826373,2060.826373,2060.826373,2060.826372,2060.826372,2060.826372,
   ** Warning ** SimHVAC: Maximum iterations (20) exceeded for all HVAC loops, at ANNUAL, 02/18 09:00 - 09:01
   **   ~~~   ** The solution for one or more of the Air Loop HVAC systems did not appear to converge
   **   ~~~   ** Air System Named = CENTRAL SYSTEM did not converge for mass flow rate
   **   ~~~   ** Check values should be zero. Most Recent values listed first.
   **   ~~~   ** Demand-to-Supply interface mass flow rate check value iteration history trace: 8.095674E-002,8.095674E-002,8.095674E-002,8.095674E-002,8.095674E-002,8.095674E-002,8.095674E-002,8.095674E-002,8.095674E-002,8.095674E-002,
   **   ~~~   ** Supply-to-demand interface deck 1 mass flow rate check value iteration history trace: 8.095674E-002,8.095674E-002,8.095674E-002,8.095674E-002,8.095674E-002,8.095674E-002,8.095674E-002,8.095674E-002,8.095674E-002,8.095674E-002,
   **   ~~~   ** Air System Named = CENTRAL SYSTEM did not converge for energy
   **   ~~~   ** Check values should be zero. Most Recent values listed first.
   **   ~~~   ** Demand-to-Supply interface energy check value iteration history trace: 1604.265070,1604.265070,1604.265070,1604.265070,1604.265070,1604.265070,1604.265070,1604.265070,1604.265070,1604.265070,
   **   ~~~   ** Supply-to-demand interface deck 1 energy check value iteration history trace: 2714.496493,2714.496493,2714.496492,2714.496492,2714.496492,2714.496492,2714.496492,2714.496492,2714.496492,2714.496492,
   ** Warning ** SimHVAC: Maximum iterations (20) exceeded for all HVAC loops, at ANNUAL, 03/12 07:56 - 08:00
   **   ~~~   ** The solution for one or more of the Air Loop HVAC systems did not appear to converge
   **   ~~~   ** Air System Named = CENTRAL SYSTEM did not converge for mass flow rate
   **   ~~~   ** Check values should be zero. Most Recent values listed first.
   **   ~~~   ** Demand-to-Supply interface mass flow rate check value iteration history trace: 0.195587,0.195587,0.195587,0.195587,0.195587,0.195587,0.195587,0.195587,0.195587,0.195587,
   **   ~~~   ** Supply-to-demand interface deck 1 mass flow rate check value iteration history trace: 0.195587,0.195587,0.195587,0.195587,0.195587,0.195587,0.195587,0.195587,0.195587,0.195587,
   **   ~~~   ** Air System Named = CENTRAL SYSTEM did not converge for energy
   **   ~~~   ** Check values should be zero. Most Recent values listed first.
   **   ~~~   ** Demand-to-Supply interface energy check value iteration history trace: 4673.525774,4673.525774,4673.525775,4673.525775,4673.525775,4673.525776,4673.525776,4673.525777,4673.525777,4673.525777,
   **   ~~~   ** Supply-to-demand interface deck 1 energy check value iteration history trace: 2526.876503,2526.876503,2526.876503,2526.876503,2526.876504,2526.876504,2526.876504,2526.876504,2526.876505,2526.876505,
   ** Warning ** SimHVAC: Maximum iterations (20) exceeded for all HVAC loops, at ANNUAL, 03/18 10:19 - 10:22
   **   ~~~   ** The solution for one or more of the Air Loop HVAC systems did not appear to converge
   **   ~~~   ** Air System Named = CENTRAL SYSTEM did not converge for mass flow rate
   **   ~~~   ** Check values should be zero. Most Recent values listed first.
   **   ~~~   ** Demand-to-Supply interface mass flow rate check value iteration history trace: 0.158988,0.158988,0.158988,0.158988,0.158988,0.158988,0.158988,0.158988,0.158988,0.158988,
   **   ~~~   ** Supply-to-demand interface deck 1 mass flow rate check value iteration history trace: 0.158988,0.158988,0.158988,0.158988,0.158988,0.158988,0.158988,0.158988,0.158988,0.158988,
   **   ~~~   ** Air System Named = CENTRAL SYSTEM did not converge for energy
   **   ~~~   ** Check values should be zero. Most Recent values listed first.
   **   ~~~   ** Demand-to-Supply interface energy check value iteration history trace: 3769.190561,3769.190561,3769.190562,3769.190562,3769.190562,3769.190562,3769.190563,3769.190563,3769.190563,3769.190564,
   **   ~~~   ** Supply-to-demand interface deck 1 energy check value iteration history trace: 1939.857491,1939.857491,1939.857491,1939.857491,1939.857492,1939.857492,1939.857492,1939.857492,1939.857492,1939.857492,
   ** Warning ** SimHVAC: Maximum iterations (20) exceeded for all HVAC loops, at ANNUAL, 03/29 05:15 - 05:30
   **   ~~~   ** The solution for one or more of the Air Loop HVAC systems did not appear to converge
   **   ~~~   ** Air System Named = CENTRAL SYSTEM did not converge for mass flow rate
   **   ~~~   ** Check values should be zero. Most Recent values listed first.
   **   ~~~   ** Demand-to-Supply interface mass flow rate check value iteration history trace: 0.183956,0.183956,0.183956,0.183956,0.183956,0.183956,0.183956,0.183956,0.183956,0.183956,
   **   ~~~   ** Supply-to-demand interface deck 1 mass flow rate check value iteration history trace: 0.183956,0.183956,0.183956,0.183956,0.183956,0.183956,0.183956,0.183956,0.183956,0.183956,
   **   ~~~   ** Air System Named = CENTRAL SYSTEM did not converge for energy
   **   ~~~   ** Check values should be zero. Most Recent values listed first.
   **   ~~~   ** Demand-to-Supply interface energy check value iteration history trace: 4445.835309,4445.835310,4445.835311,4445.835312,4445.835313,4445.835314,4445.835315,4445.835316,4445.835318,4445.835319,
   **   ~~~   ** Supply-to-demand interface deck 1 energy check value iteration history trace: 2736.813747,2736.813748,2736.813749,2736.813749,2736.813750,2736.813751,2736.813751,2736.813752,2736.813753,2736.813753,
   ** Warning ** SimHVAC: Maximum iterations (20) exceeded for all HVAC loops, at ANNUAL, 04/02 08:30 - 08:45
   **   ~~~   ** The solution for one or more of the Air Loop HVAC systems did not appear to converge
   **   ~~~   ** Air System Named = CENTRAL SYSTEM did not converge for mass flow rate
   **   ~~~   ** Check values should be zero. Most Recent values listed first.
   **   ~~~   ** Demand-to-Supply interface mass flow rate check value iteration history trace: 4.531495E-002,4.531495E-002,4.531495E-002,4.531495E-002,4.531495E-002,4.531495E-002,4.531495E-002,4.531495E-002,4.531495E-002,4.531495E-002,
   **   ~~~   ** Supply-to-demand interface deck 1 mass flow rate check value iteration history trace: 4.531495E-002,4.531495E-002,4.531495E-002,4.531495E-002,4.531495E-002,4.531495E-002,4.531495E-002,4.531495E-002,4.531495E-002,4.531495E-002,
   **   ~~~   ** Air System Named = CENTRAL SYSTEM did not converge for energy
   **   ~~~   ** Check values should be zero. Most Recent values listed first.
   **   ~~~   ** Demand-to-Supply interface energy check value iteration history trace: 1079.780935,1079.780935,1079.780936,1079.780936,1079.780936,1079.780936,1079.780936,1079.780937,1079.780937,1079.780937,
   **   ~~~   ** Supply-to-demand interface deck 1 energy check value iteration history trace: 636.332116,636.332116,636.332116,636.332116,636.332116,636.332117,636.332117,636.332117,636.332117,636.332117,
   ** Warning ** SimHVAC: Maximum iterations (20) exceeded for all HVAC loops, at ANNUAL, 04/02 10:23 - 10:30
   **   ~~~   ** The solution for one or more of the Air Loop HVAC systems did not appear to converge
   **   ~~~   ** Air System Named = CENTRAL SYSTEM did not converge for mass flow rate
   **   ~~~   ** Check values should be zero. Most Recent values listed first.
   **   ~~~   ** Demand-to-Supply interface mass flow rate check value iteration history trace: 0.120496,0.120496,0.120496,0.120496,0.120496,0.120496,0.120496,0.120496,0.120496,0.120496,
   **   ~~~   ** Supply-to-demand interface deck 1 mass flow rate check value iteration history trace: 0.120496,0.120496,0.120496,0.120496,0.120496,0.120496,0.120496,0.120496,0.120496,0.120496,
   **   ~~~   ** Air System Named = CENTRAL SYSTEM did not converge for energy
   **   ~~~   ** Check values should be zero. Most Recent values listed first.
   **   ~~~   ** Demand-to-Supply interface energy check value iteration history trace: 2868.347805,2868.347806,2868.347806,2868.347807,2868.347807,2868.347808,2868.347808,2868.347809,2868.347809,2868.347810,
   **   ~~~   ** Supply-to-demand interface deck 1 energy check value iteration history trace: 1668.149445,1668.149445,1668.149446,1668.149446,1668.149446,1668.149447,1668.149447,1668.149447,1668.149447,1668.149448,
   ** Warning ** SimHVAC: Maximum iterations (20) exceeded for all HVAC loops, at ANNUAL, 11/27 05:15 - 05:30
   **   ~~~   ** The solution for one or more of the Air Loop HVAC systems did not appear to converge
   **   ~~~   ** Air System Named = CENTRAL SYSTEM did not converge for mass flow rate
   **   ~~~   ** Check values should be zero. Most Recent values listed first.
   **   ~~~   ** Demand-to-Supply interface mass flow rate check value iteration history trace: 8.849232E-002,8.849232E-002,8.849232E-002,8.849232E-002,8.849232E-002,8.849232E-002,8.849232E-002,8.849232E-002,8.849232E-002,8.849232E-002,
   **   ~~~   ** Supply-to-demand interface deck 1 mass flow rate check value iteration history trace: 8.849232E-002,8.849232E-002,8.849232E-002,8.849232E-002,8.849232E-002,8.849232E-002,8.849232E-002,8.849232E-002,8.849232E-002,8.849232E-002,
   **   ~~~   ** Air System Named = CENTRAL SYSTEM did not converge for energy
   **   ~~~   ** Check values should be zero. Most Recent values listed first.
   **   ~~~   ** Demand-to-Supply interface energy check value iteration history trace: 1761.949154,1761.949153,1761.949153,1761.949153,1761.949153,1761.949153,1761.949153,1761.949153,1761.949152,1761.949152,
   **   ~~~   ** Supply-to-demand interface deck 1 energy check value iteration history trace: 2629.955349,2629.955349,2629.955349,2629.955349,2629.955349,2629.955348,2629.955348,2629.955348,2629.955348,2629.955348,
   ************* Simulation Error Summary *************
   ** Warning ** The following Report Variables were requested but not generated -- check.rdd file
   **   ~~~   ** Either the IDF did not contain these elements, the variable name is misspelled,
   **   ~~~   ** or the requested variable is an advanced output which requires Output : Diagnostics, DisplayAdvancedReportVariables;
   ************* Key=*, VarName=BASEBOARD TOTAL HEATING ENERGY, Frequency=
   ************* Key=*, VarName=WATER HEATER NATURALGAS ENERGY, Frequency=
   ************* Key=*, VarName=COOLING COIL TOTAL HEATING ENERGY, Frequency=
   ************* There are 34 unused schedules in input.
   ************* There are 388 unused week schedules in input.
   ************* There are 396 unused day schedules in input.
   ************* Use Output:Diagnostics,DisplayUnusedSchedules; to see them.
   *************
   ************* ===== Recurring Error Summary =====
   ************* The following recurring error messages occurred.
   *************
   *************  ** Warning ** "TOTAL HOT WATER LOAD" - Target water temperature should be less than or equal to the hot water temperature error continues...
   *************  **   ~~~   **   This error occurred 140487 total times;
   *************  **   ~~~   **   during Warmup 0 times;
   *************  **   ~~~   **   during Sizing 0 times.
   *************  **   ~~~   **   Max=8.411066  Min=2.017775E-003
   *************
   *************
   ************* ===== Final Error Summary =====
   ************* The following error categories occurred.  Consider correcting or noting.
   ************* Nominally Unused Constructions
   ************* ..The nominally unused constructions warning is provided to alert you to potential conditions that can cause
   ************* ..extra time during simulation. Each construction is calculated by the algorithm indicated in the HeatBalanceAlgorithm
   ************* ..object. You may remove the constructions indicated (when you use the DisplayExtraWarnings option).
   *************
   ************* EnergyPlus Warmup Error Summary. During Warmup: 1 Warning; 0 Severe Errors.
   ************* EnergyPlus Sizing Error Summary. During Sizing: 4 Warning; 0 Severe Errors.
   ************* EnergyPlus Completed Successfully-- 140513 Warning; 0 Severe Errors; Elapsed Time=00hr 01min 45.48sec
