Program Version,EnergyPlus, Version 22.2.0-c249759bad, YMD=2023.08.16 09:16,
   ************* Beginning Zone Sizing Calculations
   ** Warning ** Foundation:Kiva="KIVA FOUNDATION", no Interior Horizontal Insulation Material Name defined
   **   ~~~   ** Interior Horizontal Insulation Depth will not be used.
   ** Warning ** GetSurfaceData: Very small surface area[1.00000E-006], Surface=INTERNALMASS
   ** Warning ** CheckUsedConstructions: There are 15 nominally unused constructions in input.
   **   ~~~   ** Each Unused construction is shown.
   ************* Construction=INTERIOR FLOOR
   ************* Construction=INTERIOR WINDOW
   ************* Construction=EXTERIOR DOOR
   ************* Construction=INTERIOR DOOR
   ************* Construction=GABLE CONSTRUCTION
   ************* Construction=CRAWL_FLOOR
   ************* Construction=INSULATED PIPE
   ************* Construction=PLAIN PIPE
   ************* Construction=TDD PIPE
   ************* Construction=TDD DOME
   ************* Construction=TDD DIFFUSER
   ************* Construction=CRAWL WALL
   ************* Construction=CEILING-FLOOR-LAYER
   ************* Construction=SLAB CONSTRUCTION W FULL R10 INSULATION
   ************* Construction=SLAB CONSTRUCTION W FULL R5 INSULATION
   ************* Beginning System Sizing Calculations
   ** Warning ** ManageSizing: For a plant sizing run, there must be at least 1 Sizing:Plant object input. SimulationControl Plant Sizing option ignored.
   ************* SizeHVACSingleDuct: Potential issue with equipment sizing for AirTerminal:SingleDuct:ConstantVolume:NoReheat = "ZONEDIRECTAIR".
   **   ~~~   ** User-Specified Maximum Air Flow Rate of 0.63102 [m3/s]
   **   ~~~   ** differs from Design Size Maximum Air Flow Rate of 0.71523 [m3/s]
   **   ~~~   ** This may, or may not, indicate mismatched component sizes.
   **   ~~~   ** Verify that the value entered is intended and is consistent with other components.
   ** Warning ** GetDXCoils: Coil:Heating:DX:SingleSpeed="DX_HEATING_COIL" curve values
   **   ~~~   ** ... Defrost Energy Input Ratio Function of Temperature Curve Name = DEFROSTEIR output is not equal to 1.0 (+ or - 10%) at rated conditions.
   **   ~~~   ** ... Curve output at rated conditions = 0.152
   ************* SizeDXCoil: Potential issue with equipment sizing for Coil:Cooling:DX:SingleSpeed DX_COOLING_COIL
   **   ~~~   ** User-Specified Rated Air Flow Rate [m3/s] = 0.63102
   **   ~~~   ** differs from Design Size Rated Air Flow Rate [m3/s] = 0.71523
   **   ~~~   ** This may, or may not, indicate mismatched component sizes.
   **   ~~~   ** Verify that the value entered is intended and is consistent with other components.
   ************* SizeDXCoil: Potential issue with equipment sizing for Coil:Cooling:DX:SingleSpeed DX_COOLING_COIL
   **   ~~~   ** User-Specified Gross Rated Total Cooling Capacity [W] = 12853.21792
   **   ~~~   ** differs from Design Size Gross Rated Total Cooling Capacity [W] = 8531.78311
   **   ~~~   ** This may, or may not, indicate mismatched component sizes.
   **   ~~~   ** Verify that the value entered is intended and is consistent with other components.
   ** Warning ** The Standard Ratings is calculated for Coil:Cooling:DX:SingleSpeed = DX_COOLING_COIL but not at the AHRI test condition due to curve out of bound.
   **   ~~~   **  Review the Standard Ratings calculations in the Engineering Reference for this coil type. Also, use Output:Diagnostics, DisplayExtraWarnings for further guidance.
   **   ~~~   ** CheckCurveLimitsForStandardRatings: The max and/or min limits specified in the corresponding curve objects
   **   ~~~   **  do not include the AHRI test conditions required to calculate one or more of the Standard Rating values.
   **   ~~~   ** Coil:Cooling:DX:SingleSpeed=DX_COOLING_COIL:  Integrated Energy Efficiency Ratio (IEER) calculated is not at the AHRI test condition.
   **   ~~~   **  Check limits in Total Cooling Capacity Function of Temperature Curve, Curve Type = Curve:Biquadratic, Curve Name = COOL-CAP-FT
   **   ~~~   **  Check limits in EIR Function of Temperature Curve, Curve Type = Curve:Biquadratic, Curve Name = COOL-EIR-FT
   ************* SizeFan: : Potential issue with equipment sizing for Fan:OnOff FAN
   **   ~~~   ** User-Specified Maximum Flow Rate [m3/s] = 0.63102
   **   ~~~   ** differs from Design Size Maximum Flow Rate [m3/s] = 0.71523
   **   ~~~   ** This may, or may not, indicate mismatched component sizes.
   **   ~~~   ** Verify that the value entered is intended and is consistent with other components.
   ************* SizeDXCoil: Potential issue with equipment sizing for Coil:Heating:DX:SingleSpeed DX_HEATING_COIL
   **   ~~~   ** User-Specified Rated Air Flow Rate [m3/s] = 0.63102
   **   ~~~   ** differs from Design Size Rated Air Flow Rate [m3/s] = 0.71523
   **   ~~~   ** This may, or may not, indicate mismatched component sizes.
   **   ~~~   ** Verify that the value entered is intended and is consistent with other components.
   ************* Testing Individual Branch Integrity
   ************* All Branches passed integrity testing
   ************* Testing Individual Supply Air Path Integrity
   ************* All Supply Air Paths passed integrity testing
   ************* Testing Individual Return Air Path Integrity
   ************* All Return Air Paths passed integrity testing
   ************* No node connection errors were found.
   ************* Beginning Simulation
   ** Warning ** WetBulb not converged after 101 iterations(PsyTwbFnTdbWPb)
   **   ~~~   **  Routine=Unknown, Environment=ANNUAL, at Simulation time=03/11 12:00 - 12:02
   **   ~~~   **  Input Temperature = 3.28
   **   ~~~   **  Input Humidity Ratio= 2.752007E-003
   **   ~~~   **  Input Pressure = 93717.50
   **   ~~~   **  Resultant Temperature= 4.06E-002
   ** Warning ** Temperature out of range [-100. to 200.] (PsyPsatFnTemp)
   **   ~~~   **  Routine=PsyTwbFnTdbWPb, Environment=ANNUAL, at Simulation time=04/14 05:20 - 05:30
   **   ~~~   **  Input Temperature=-152.80
   ************* Simulation Error Summary *************
   ** Warning ** The following Report Variables were requested but not generated -- check.rdd file
   **   ~~~   ** Either the IDF did not contain these elements, the variable name is misspelled,
   **   ~~~   ** or the requested variable is an advanced output which requires Output : Diagnostics, DisplayAdvancedReportVariables;
   ************* Key=*, VarName=HEATING COIL NATURALGAS RATE, Frequency=Hourly
   ************* Key=*, VarName=HEATING COIL PROPANE RATE, Frequency=Hourly
   ************* Key=*, VarName=WATER HEATER ELECTRICITY RATE, Frequency=Hourly
   ************* Key=*, VarName=WATER HEATER NATURALGAS RATE, Frequency=Hourly
   ************* There are 41 unused schedules in input.
   ************* There are 1124 unused week schedules in input.
   ************* There are 1138 unused day schedules in input.
   ************* Use Output:Diagnostics,DisplayUnusedSchedules; to see them.
   *************
   ************* ===== Recurring Error Summary =====
   ************* The following recurring error messages occurred.
   *************
   *************  ** Warning ** WetBulb not converged after max iterations(PsyTwbFnTdbWPb)
   *************  **   ~~~   **   This error occurred 3 total times;
   *************  **   ~~~   **   during Warmup 0 times;
   *************  **   ~~~   **   during Sizing 0 times.
   *************
   *************  ** Warning ** Temperature out of range [-100. to 200.] (PsyPsatFnTemp)
   *************  **   ~~~   **   This error occurred 1 total times;
   *************  **   ~~~   **   during Warmup 0 times;
   *************  **   ~~~   **   during Sizing 0 times.
   *************  **   ~~~   **   Max=-152.803223 C  Min=-152.803223 C
   *************
   *************
   ************* ===== Final Error Summary =====
   ************* The following error categories occurred.  Consider correcting or noting.
   ************* Nominally Unused Constructions
   ************* ..The nominally unused constructions warning is provided to alert you to potential conditions that can cause
   ************* ..extra time during simulation. Each construction is calculated by the algorithm indicated in the HeatBalanceAlgorithm
   ************* ..object. You may remove the constructions indicated (when you use the DisplayExtraWarnings option).
   *************
   ************* EnergyPlus Warmup Error Summary. During Warmup: 0 Warning; 0 Severe Errors.
   ************* EnergyPlus Sizing Error Summary. During Sizing: 4 Warning; 0 Severe Errors.
   ************* EnergyPlus Completed Successfully-- 11 Warning; 0 Severe Errors; Elapsed Time=00hr 00min 52.19sec
