Program Version,EnergyPlus, Version 22.2.0-c249759bad, YMD=2023.09.01 14:22,
   ************* Beginning Zone Sizing Calculations
   ** Warning ** ProcessScheduleInput: Schedule:Constant="ALWAYS ON DISCRETE", Schedule Type Limits Name="ONOFF" not found -- will not be validated
   ** Warning ** Foundation:Kiva="KIVA FOUNDATION", no Interior Horizontal Insulation Material Name defined
   **   ~~~   ** Interior Horizontal Insulation Depth will not be used.
   ** Warning ** CheckUsedConstructions: There are 15 nominally unused constructions in input.
   **   ~~~   ** Each Unused construction is shown.
   ************* Construction=INTERIOR FLOOR
   ************* Construction=INTERIOR WINDOW
   ************* Construction=EXTERIOR DOOR
   ************* Construction=INTERIOR DOOR
   ************* Construction=GABLE CONSTRUCTION
   ************* Construction=CRAWL_FLOOR
   ************* Construction=INSULATED PIPE
   ************* Construction=PLAIN PIPE
   ************* Construction=TDD PIPE
   ************* Construction=TDD DOME
   ************* Construction=TDD DIFFUSER
   ************* Construction=CRAWL WALL
   ************* Construction=CEILING-FLOOR-LAYER
   ************* Construction=SLAB CONSTRUCTION W FULL R10 INSULATION
   ************* Construction=SLAB CONSTRUCTION W FULL R5 INSULATION
   ** Warning ** GetDXCoils: Coil:Heating:DX:SingleSpeed="DX_HEATING_COIL" curve values
   **   ~~~   ** ... Defrost Energy Input Ratio Function of Temperature Curve Name = DEFROSTEIR output is not equal to 1.0 (+ or - 10%) at rated conditions.
   **   ~~~   ** ... Curve output at rated conditions = 0.152
   ** Severe  ** WaterHeater:HeatPump:WrappedCondenser="WATER HEATER":
   **   ~~~   ** The HPWH's air inlet node name = ZONE EXHAUST NODE was not properly specified 
   **   ~~~   ** as an exhaust air node for zone = CRAWLSPACE in a ZoneHVAC:EquipmentConnections object.
   ** Severe  ** WaterHeater:HeatPump:WrappedCondenser="WATER HEATER":
   **   ~~~   ** The HPWH's air outlet node name = HPWH ZONE INLET NODE was not properly specified 
   **   ~~~   ** as an inlet air node for zone = CRAWLSPACE in a ZoneHVAC:EquipmentConnections object.
   ** Severe  ** WaterHeater:HeatPump:WrappedCondenser = WATER HEATER:
   **   ~~~   ** Heat pump water heater type and name must be listed in the correct ZoneHVAC:EquipmentList object when Inlet Air Configuration is equal to ZoneAirOnly or ZoneAndOutdoorAir.
   ************* Beginning System Sizing Calculations
   ************* Beginning Plant Sizing Calculations
   ** Warning ** Coil:WaterHeating:AirToWaterHeatPump:Wrapped "HEAT PUMP WATER HEATER EVAPORATOR": Rated air volume flow rate per watt of rated total water heating capacity is out of range
   **   ~~~   ** Min Rated Vol Flow Per Watt=[4.027E-005], Rated Vol Flow Per Watt=[1.386E-004], Max Rated Vol Flow Per Watt=[8.056E-005]. See Input-Output Reference Manual for valid range.
   ** Warning ** Water heater = WATER HEATER TANK:  Recovery Efficiency and Energy Factor could not be calculated during the test for standard ratings
   **   ~~~   ** Setpoint was never recovered and/or heater never turned on
   ** Warning ** Check input. Pump nominal power or motor efficiency is set to 0, for pump=MAINS PRESSURE
   ** Warning ** Output:Meter: invalid Key Name="ELECTRIC_RANGE:INTERIOREQUIPMENT:ELECTRICITY" - not found.
   ** Warning ** Output:Meter: invalid Key Name="ELECTRIC_DRYER:INTERIOREQUIPMENT:ELECTRICITY" - not found.
   ** Warning ** Output:Meter: invalid Key Name="HEATRECOVERY:ELECTRICITY" - not found.
   ** Warning ** Output:Meter: invalid Key Name="HEATING:NATURALGAS" - not found.
   ** Warning ** Output:Meter: invalid Key Name="WATERSYSTEMS:NATURALGAS" - not found.
   ** Warning ** Output:Meter: invalid Key Name="PROPANE:FACILITY" - not found.
   ** Warning ** Output:Meter: invalid Key Name="HEATING:PROPANE" - not found.
   ************* Testing Individual Branch Integrity
   ************* All Branches passed integrity testing
   ************* Testing Individual Supply Air Path Integrity
   ************* All Supply Air Paths passed integrity testing
   ************* Testing Individual Return Air Path Integrity
   ************* All Return Air Paths passed integrity testing
   ************* No node connection errors were found.
   ************* Beginning Simulation
   ** Warning ** AirflowNetwork::Solver::validate_distribution: Heat pump water heater is simulated along with an AirflowNetwork but is not included in the AirflowNetwork.
   ** Warning ** CalcEquipmentFlowRates: "TOTAL HOT WATER LOAD" - Target water temperature is greater than the hot water temperature by (1.68 C)
   **   ~~~   **  Environment=EXTREME_WINTER, at Simulation time=01/29 06:00 - 06:15
   **   ~~~   ** ...target water temperature     = 53.33 C
   **   ~~~   ** ...hot water temperature        = 51.66 C
   **   ~~~   ** ...Target water temperature should be less than or equal to the hot water temperature. Verify temperature setpoints and schedules.
   ** Warning ** SimHVAC: Maximum iterations (20) exceeded for all HVAC loops, at EXTREME_WINTER, 01/31 21:15 - 21:30
   **   ~~~   ** The solution for one or more of the Air Loop HVAC systems did not appear to converge
   **   ~~~   ** Air System Named = CENTRAL SYSTEM did not converge for mass flow rate
   **   ~~~   ** Check values should be zero. Most Recent values listed first.
   **   ~~~   ** Demand-to-Supply interface mass flow rate check value iteration history trace: 9.205766E-002,9.205766E-002,9.205766E-002,9.205766E-002,9.205766E-002,9.205766E-002,9.205766E-002,9.205766E-002,9.205766E-002,9.205766E-002,
   **   ~~~   ** Supply-to-demand interface deck 1 mass flow rate check value iteration history trace: 9.205766E-002,9.205766E-002,9.205766E-002,9.205766E-002,9.205766E-002,9.205766E-002,9.205766E-002,9.205766E-002,9.205766E-002,9.205766E-002,
   **   ~~~   ** Air System Named = CENTRAL SYSTEM did not converge for energy
   **   ~~~   ** Check values should be zero. Most Recent values listed first.
   **   ~~~   ** Demand-to-Supply interface energy check value iteration history trace: 1803.087399,1803.087399,1803.087399,1803.087399,1803.087399,1803.087398,1803.087398,1803.087398,1803.087398,1803.087398,
   **   ~~~   ** Supply-to-demand interface deck 1 energy check value iteration history trace: 2761.742984,2761.742984,2761.742984,2761.742984,2761.742983,2761.742983,2761.742983,2761.742983,2761.742983,2761.742982,
   ** Warning ** SimHVAC: Maximum iterations (20) exceeded for all HVAC loops, at ANNUAL, 01/21 10:45 - 10:47
   **   ~~~   ** The solution for one or more of the Air Loop HVAC systems did not appear to converge
   **   ~~~   ** Air System Named = CENTRAL SYSTEM did not converge for mass flow rate
   **   ~~~   ** Check values should be zero. Most Recent values listed first.
   **   ~~~   ** Demand-to-Supply interface mass flow rate check value iteration history trace: 9.437673E-002,9.437673E-002,9.437673E-002,9.437673E-002,9.437673E-002,9.437673E-002,9.437673E-002,9.437673E-002,9.437673E-002,9.437673E-002,
   **   ~~~   ** Supply-to-demand interface deck 1 mass flow rate check value iteration history trace: 9.437673E-002,9.437673E-002,9.437673E-002,9.437673E-002,9.437673E-002,9.437673E-002,9.437673E-002,9.437673E-002,9.437673E-002,9.437673E-002,
   **   ~~~   ** Air System Named = CENTRAL SYSTEM did not converge for energy
   **   ~~~   ** Check values should be zero. Most Recent values listed first.
   **   ~~~   ** Demand-to-Supply interface energy check value iteration history trace: 1870.241274,1870.241274,1870.241274,1870.241274,1870.241274,1870.241274,1870.241274,1870.241273,1870.241273,1870.241273,
   **   ~~~   ** Supply-to-demand interface deck 1 energy check value iteration history trace: 2885.989443,2885.989443,2885.989443,2885.989442,2885.989442,2885.989442,2885.989442,2885.989442,2885.989442,2885.989441,
   ** Warning ** SimHVAC: Maximum iterations (20) exceeded for all HVAC loops, at ANNUAL, 10/24 07:38 - 07:41
   **   ~~~   ** The solution for one or more of the Air Loop HVAC systems did not appear to converge
   **   ~~~   ** Air System Named = CENTRAL SYSTEM did not converge for mass flow rate
   **   ~~~   ** Check values should be zero. Most Recent values listed first.
   **   ~~~   ** Demand-to-Supply interface mass flow rate check value iteration history trace: 6.308786E-002,6.308786E-002,6.308786E-002,6.308786E-002,6.308786E-002,6.308786E-002,6.308786E-002,6.308786E-002,6.308786E-002,6.308786E-002,
   **   ~~~   ** Supply-to-demand interface deck 1 mass flow rate check value iteration history trace: 6.308786E-002,6.308786E-002,6.308786E-002,6.308786E-002,6.308786E-002,6.308786E-002,6.308786E-002,6.308786E-002,6.308786E-002,6.308786E-002,
   **   ~~~   ** Air System Named = CENTRAL SYSTEM did not converge for energy
   **   ~~~   ** Check values should be zero. Most Recent values listed first.
   **   ~~~   ** Demand-to-Supply interface energy check value iteration history trace: 1241.403236,1241.403235,1241.403235,1241.403235,1241.403235,1241.403235,1241.403235,1241.403235,1241.403235,1241.403235,
   **   ~~~   ** Supply-to-demand interface deck 1 energy check value iteration history trace: 2186.222404,2186.222404,2186.222403,2186.222403,2186.222403,2186.222403,2186.222403,2186.222403,2186.222403,2186.222403,
   ** Warning ** SimHVAC: Maximum iterations (20) exceeded for all HVAC loops, at ANNUAL, 10/30 07:15 - 07:30
   **   ~~~   ** The solution for one or more of the Air Loop HVAC systems did not appear to converge
   **   ~~~   ** Air System Named = CENTRAL SYSTEM did not converge for mass flow rate
   **   ~~~   ** Check values should be zero. Most Recent values listed first.
   **   ~~~   ** Demand-to-Supply interface mass flow rate check value iteration history trace: 7.608885E-002,7.608885E-002,7.608885E-002,7.608885E-002,7.608885E-002,7.608885E-002,7.608885E-002,7.608885E-002,7.608885E-002,7.608885E-002,
   **   ~~~   ** Supply-to-demand interface deck 1 mass flow rate check value iteration history trace: 7.608885E-002,7.608885E-002,7.608885E-002,7.608885E-002,7.608885E-002,7.608885E-002,7.608885E-002,7.608885E-002,7.608885E-002,7.608885E-002,
   **   ~~~   ** Air System Named = CENTRAL SYSTEM did not converge for energy
   **   ~~~   ** Check values should be zero. Most Recent values listed first.
   **   ~~~   ** Demand-to-Supply interface energy check value iteration history trace: 1503.030530,1503.030530,1503.030530,1503.030530,1503.030530,1503.030530,1503.030530,1503.030530,1503.030530,1503.030530,
   **   ~~~   ** Supply-to-demand interface deck 1 energy check value iteration history trace: 2559.305478,2559.305478,2559.305478,2559.305478,2559.305477,2559.305477,2559.305477,2559.305477,2559.305477,2559.305477,
   ** Warning ** SimHVAC: Maximum iterations (20) exceeded for all HVAC loops, at ANNUAL, 11/07 19:08 - 19:11
   **   ~~~   ** The solution for one or more of the Air Loop HVAC systems did not appear to converge
   **   ~~~   ** Air System Named = CENTRAL SYSTEM did not converge for mass flow rate
   **   ~~~   ** Check values should be zero. Most Recent values listed first.
   **   ~~~   ** Demand-to-Supply interface mass flow rate check value iteration history trace: 0.248192,0.248192,0.248192,0.248192,0.248192,0.248192,0.248192,0.248192,0.248192,0.248192,
   **   ~~~   ** Supply-to-demand interface deck 1 mass flow rate check value iteration history trace: 0.248192,0.248192,0.248192,0.248192,0.248192,0.248192,0.248192,0.248192,0.248192,0.248192,
   **   ~~~   ** Air System Named = CENTRAL SYSTEM did not converge for energy
   **   ~~~   ** Check values should be zero. Most Recent values listed first.
   **   ~~~   ** Demand-to-Supply interface energy check value iteration history trace: 5926.737865,5926.737866,5926.737866,5926.737866,5926.737867,5926.737867,5926.737868,5926.737868,5926.737868,5926.737869,
   **   ~~~   ** Supply-to-demand interface deck 1 energy check value iteration history trace: 2306.505018,2306.505018,2306.505018,2306.505018,2306.505018,2306.505019,2306.505019,2306.505019,2306.505019,2306.505019,
   ** Warning ** SimHVAC: Maximum iterations (20) exceeded for all HVAC loops, at ANNUAL, 11/14 18:06 - 18:09
   **   ~~~   ** The solution for one or more of the Air Loop HVAC systems did not appear to converge
   **   ~~~   ** Air System Named = CENTRAL SYSTEM did not converge for mass flow rate
   **   ~~~   ** Check values should be zero. Most Recent values listed first.
   **   ~~~   ** Demand-to-Supply interface mass flow rate check value iteration history trace: 0.178271,0.178271,0.178271,0.178271,0.178271,0.178271,0.178271,0.178271,0.178271,0.178271,
   **   ~~~   ** Supply-to-demand interface deck 1 mass flow rate check value iteration history trace: 0.178271,0.178271,0.178271,0.178271,0.178271,0.178271,0.178271,0.178271,0.178271,0.178271,
   **   ~~~   ** Air System Named = CENTRAL SYSTEM did not converge for energy
   **   ~~~   ** Check values should be zero. Most Recent values listed first.
   **   ~~~   ** Demand-to-Supply interface energy check value iteration history trace: 4247.122699,4247.122699,4247.122699,4247.122699,4247.122700,4247.122700,4247.122700,4247.122700,4247.122701,4247.122701,
   **   ~~~   ** Supply-to-demand interface deck 1 energy check value iteration history trace: 1667.782396,1667.782396,1667.782396,1667.782396,1667.782396,1667.782396,1667.782397,1667.782397,1667.782397,1667.782397,
   ** Warning ** SimHVAC: Maximum iterations (20) exceeded for all HVAC loops, at ANNUAL, 11/29 15:00 - 15:15
   **   ~~~   ** The solution for one or more of the Air Loop HVAC systems did not appear to converge
   **   ~~~   ** Air System Named = CENTRAL SYSTEM did not converge for mass flow rate
   **   ~~~   ** Check values should be zero. Most Recent values listed first.
   **   ~~~   ** Demand-to-Supply interface mass flow rate check value iteration history trace: 6.657932E-002,6.657932E-002,6.657932E-002,6.657932E-002,6.657932E-002,6.657932E-002,6.657932E-002,6.657932E-002,6.657932E-002,6.657932E-002,
   **   ~~~   ** Supply-to-demand interface deck 1 mass flow rate check value iteration history trace: 6.657932E-002,6.657932E-002,6.657932E-002,6.657932E-002,6.657932E-002,6.657932E-002,6.657932E-002,6.657932E-002,6.657932E-002,6.657932E-002,
   **   ~~~   ** Air System Named = CENTRAL SYSTEM did not converge for energy
   **   ~~~   ** Check values should be zero. Most Recent values listed first.
   **   ~~~   ** Demand-to-Supply interface energy check value iteration history trace: 1322.455880,1322.455880,1322.455880,1322.455880,1322.455880,1322.455880,1322.455880,1322.455880,1322.455880,1322.455880,
   **   ~~~   ** Supply-to-demand interface deck 1 energy check value iteration history trace: 2343.651485,2343.651485,2343.651485,2343.651485,2343.651485,2343.651485,2343.651485,2343.651485,2343.651484,2343.651484,
   ** Warning ** SimHVAC: Maximum iterations (20) exceeded for all HVAC loops, at ANNUAL, 12/18 07:00 - 07:15
   **   ~~~   ** The solution for one or more of the Air Loop HVAC systems did not appear to converge
   **   ~~~   ** Air System Named = CENTRAL SYSTEM did not converge for mass flow rate
   **   ~~~   ** Check values should be zero. Most Recent values listed first.
   **   ~~~   ** Demand-to-Supply interface mass flow rate check value iteration history trace: 4.328862E-002,4.328862E-002,4.328862E-002,4.328862E-002,4.328862E-002,4.328862E-002,4.328862E-002,4.328862E-002,4.328862E-002,4.328862E-002,
   **   ~~~   ** Supply-to-demand interface deck 1 mass flow rate check value iteration history trace: 4.328862E-002,4.328862E-002,4.328862E-002,4.328862E-002,4.328862E-002,4.328862E-002,4.328862E-002,4.328862E-002,4.328862E-002,4.328862E-002,
   **   ~~~   ** Air System Named = CENTRAL SYSTEM did not converge for energy
   **   ~~~   ** Check values should be zero. Most Recent values listed first.
   **   ~~~   ** Demand-to-Supply interface energy check value iteration history trace: 857.856067,857.856067,857.856067,857.856067,857.856067,857.856067,857.856067,857.856067,857.856067,857.856067,
   **   ~~~   ** Supply-to-demand interface deck 1 energy check value iteration history trace: 1640.046491,1640.046491,1640.046491,1640.046491,1640.046491,1640.046491,1640.046491,1640.046491,1640.046491,1640.046491,
   ** Warning ** SimHVAC: Maximum iterations (20) exceeded for all HVAC loops, at ANNUAL, 12/18 07:00 - 07:08
   **   ~~~   ** The solution for one or more of the Air Loop HVAC systems did not appear to converge
   **   ~~~   ** Air System Named = CENTRAL SYSTEM did not converge for mass flow rate
   **   ~~~   ** Check values should be zero. Most Recent values listed first.
   **   ~~~   ** Demand-to-Supply interface mass flow rate check value iteration history trace: 4.366805E-002,4.366805E-002,4.366805E-002,4.366805E-002,4.366805E-002,4.366805E-002,4.366805E-002,4.366805E-002,4.366805E-002,4.366805E-002,
   **   ~~~   ** Supply-to-demand interface deck 1 mass flow rate check value iteration history trace: 4.366805E-002,4.366805E-002,4.366805E-002,4.366805E-002,4.366805E-002,4.366805E-002,4.366805E-002,4.366805E-002,4.366805E-002,4.366805E-002,
   **   ~~~   ** Air System Named = CENTRAL SYSTEM did not converge for energy
   **   ~~~   ** Check values should be zero. Most Recent values listed first.
   **   ~~~   ** Demand-to-Supply interface energy check value iteration history trace: 865.375364,865.375364,865.375364,865.375364,865.375364,865.375364,865.375364,865.375364,865.375364,865.375364,
   **   ~~~   ** Supply-to-demand interface deck 1 energy check value iteration history trace: 1654.420703,1654.420703,1654.420703,1654.420703,1654.420703,1654.420703,1654.420703,1654.420703,1654.420703,1654.420703,
   ************* Simulation Error Summary *************
   ** Warning ** The following Report Variables were requested but not generated -- check.rdd file
   **   ~~~   ** Either the IDF did not contain these elements, the variable name is misspelled,
   **   ~~~   ** or the requested variable is an advanced output which requires Output : Diagnostics, DisplayAdvancedReportVariables;
   ************* Key=*, VarName=BASEBOARD TOTAL HEATING ENERGY, Frequency=
   ************* Key=*, VarName=WATER HEATER NATURALGAS ENERGY, Frequency=
   ************* Key=*, VarName=COOLING COIL TOTAL HEATING ENERGY, Frequency=
   ************* There are 34 unused schedules in input.
   ************* There are 388 unused week schedules in input.
   ************* There are 396 unused day schedules in input.
   ************* Use Output:Diagnostics,DisplayUnusedSchedules; to see them.
   *************
   ************* ===== Recurring Error Summary =====
   ************* The following recurring error messages occurred.
   *************
   *************  ** Warning ** "TOTAL HOT WATER LOAD" - Target water temperature should be less than or equal to the hot water temperature error continues...
   *************  **   ~~~   **   This error occurred 127201 total times;
   *************  **   ~~~   **   during Warmup 0 times;
   *************  **   ~~~   **   during Sizing 0 times.
   *************  **   ~~~   **   Max=9.078067  Min=6.311517E-005
   *************
   *************
   ************* ===== Final Error Summary =====
   ************* The following error categories occurred.  Consider correcting or noting.
   ************* Nominally Unused Constructions
   ************* ..The nominally unused constructions warning is provided to alert you to potential conditions that can cause
   ************* ..extra time during simulation. Each construction is calculated by the algorithm indicated in the HeatBalanceAlgorithm
   ************* ..object. You may remove the constructions indicated (when you use the DisplayExtraWarnings option).
   *************
   ************* EnergyPlus Warmup Error Summary. During Warmup: 1 Warning; 0 Severe Errors.
   ************* EnergyPlus Sizing Error Summary. During Sizing: 4 Warning; 3 Severe Errors.
   ************* EnergyPlus Completed Successfully-- 127227 Warning; 3 Severe Errors; Elapsed Time=00hr 01min 26.64sec
