Program Version,EnergyPlus, Version 22.2.0-c249759bad, YMD=2023.09.01 20:03,
   ************* Beginning Zone Sizing Calculations
   ** Warning ** ProcessScheduleInput: Schedule:Constant="ALWAYS ON DISCRETE", Schedule Type Limits Name="ONOFF" not found -- will not be validated
   ** Warning ** Foundation:Kiva="KIVA FOUNDATION", no Interior Horizontal Insulation Material Name defined
   **   ~~~   ** Interior Horizontal Insulation Depth will not be used.
   ** Warning ** CheckUsedConstructions: There are 15 nominally unused constructions in input.
   **   ~~~   ** Each Unused construction is shown.
   ************* Construction=INTERIOR FLOOR
   ************* Construction=INTERIOR WINDOW
   ************* Construction=EXTERIOR DOOR
   ************* Construction=INTERIOR DOOR
   ************* Construction=GABLE CONSTRUCTION
   ************* Construction=CRAWL_FLOOR
   ************* Construction=INSULATED PIPE
   ************* Construction=PLAIN PIPE
   ************* Construction=TDD PIPE
   ************* Construction=TDD DOME
   ************* Construction=TDD DIFFUSER
   ************* Construction=CRAWL WALL
   ************* Construction=CEILING-FLOOR-LAYER
   ************* Construction=SLAB CONSTRUCTION W FULL R10 INSULATION
   ************* Construction=SLAB CONSTRUCTION W FULL R5 INSULATION
   ** Warning ** GetDXCoils: Coil:Heating:DX:SingleSpeed="DX_HEATING_COIL" curve values
   **   ~~~   ** ... Defrost Energy Input Ratio Function of Temperature Curve Name = DEFROSTEIR output is not equal to 1.0 (+ or - 10%) at rated conditions.
   **   ~~~   ** ... Curve output at rated conditions = 0.152
   ************* Beginning System Sizing Calculations
   ************* Beginning Plant Sizing Calculations
   ** Warning ** SizeDXCoil Coil:Cooling:DX:SingleSpeed DX_COOLING_COIL
   **   ~~~   ** ...Gross Rated Total Cooling Capacity [W] will be limited by the maximum rated volume flow per rated total capacity ratio.
   **   ~~~   ** ...DX coil volume flow rate ( m3/s ) = 0.420649
   **   ~~~   ** ...Requested capacity ( W ) = 6800.707
   **   ~~~   ** ...Requested flow/capacity ratio ( m3/s/W ) = 6.185E-005
   **   ~~~   ** ...Maximum flow/capacity ratio ( m3/s/W ) = 6.041E-005
   **   ~~~   ** ...Adjusted capacity ( W ) = 6963.250
   ** Warning ** Coil:WaterHeating:AirToWaterHeatPump:Wrapped "HEAT PUMP WATER HEATER EVAPORATOR": Rated air volume flow rate per watt of rated total water heating capacity is out of range
   **   ~~~   ** Min Rated Vol Flow Per Watt=[4.027E-005], Rated Vol Flow Per Watt=[1.510E-004], Max Rated Vol Flow Per Watt=[8.056E-005]. See Input-Output Reference Manual for valid range.
   ************* SizeFan: : Potential issue with equipment sizing for Fan:OnOff HEAT PUMP WATER HEATER FAN
   **   ~~~   ** User-Specified Maximum Flow Rate [m3/s] = 0.22653
   **   ~~~   ** differs from Design Size Maximum Flow Rate [m3/s] = 7.55250E-002
   **   ~~~   ** This may, or may not, indicate mismatched component sizes.
   **   ~~~   ** Verify that the value entered is intended and is consistent with other components.
   ** Warning ** Water heater = WATER HEATER TANK:  Recovery Efficiency and Energy Factor could not be calculated during the test for standard ratings
   **   ~~~   ** Setpoint was never recovered and/or heater never turned on
   ** Warning ** Check input. Pump nominal power or motor efficiency is set to 0, for pump=MAINS PRESSURE
   ** Warning ** Output:Meter: invalid Key Name="ELECTRIC_RANGE:INTERIOREQUIPMENT:ELECTRICITY" - not found.
   ** Warning ** Output:Meter: invalid Key Name="ELECTRIC_DRYER:INTERIOREQUIPMENT:ELECTRICITY" - not found.
   ** Warning ** Output:Meter: invalid Key Name="HEATRECOVERY:ELECTRICITY" - not found.
   ** Warning ** Output:Meter: invalid Key Name="HEATING:NATURALGAS" - not found.
   ** Warning ** Output:Meter: invalid Key Name="WATERSYSTEMS:NATURALGAS" - not found.
   ** Warning ** Output:Meter: invalid Key Name="PROPANE:FACILITY" - not found.
   ** Warning ** Output:Meter: invalid Key Name="HEATING:PROPANE" - not found.
   ************* Testing Individual Branch Integrity
   ************* All Branches passed integrity testing
   ************* Testing Individual Supply Air Path Integrity
   ************* All Supply Air Paths passed integrity testing
   ************* Testing Individual Return Air Path Integrity
   ************* All Return Air Paths passed integrity testing
   ************* No node connection errors were found.
   ************* Beginning Simulation
   ** Warning ** AirflowNetwork::Solver::validate_distribution: Heat pump water heater is simulated along with an AirflowNetwork but is not included in the AirflowNetwork.
   ** Warning ** CalcEquipmentFlowRates: "TOTAL HOT WATER LOAD" - Target water temperature is greater than the hot water temperature by (3.95 C)
   **   ~~~   **  Environment=EXTREME_WINTER, at Simulation time=01/06 07:00 - 07:15
   **   ~~~   ** ...target water temperature     = 53.33 C
   **   ~~~   ** ...hot water temperature        = 49.38 C
   **   ~~~   ** ...Target water temperature should be less than or equal to the hot water temperature. Verify temperature setpoints and schedules.
   ** Warning ** SimHVAC: Maximum iterations (20) exceeded for all HVAC loops, at ANNUAL, 01/21 11:15 - 11:30
   **   ~~~   ** The solution for one or more of the Air Loop HVAC systems did not appear to converge
   **   ~~~   ** Air System Named = CENTRAL SYSTEM did not converge for mass flow rate
   **   ~~~   ** Check values should be zero. Most Recent values listed first.
   **   ~~~   ** Demand-to-Supply interface mass flow rate check value iteration history trace: 8.638626E-002,8.638626E-002,8.638626E-002,8.638626E-002,8.638626E-002,8.638626E-002,8.638626E-002,8.638626E-002,8.638626E-002,8.638626E-002,
   **   ~~~   ** Supply-to-demand interface deck 1 mass flow rate check value iteration history trace: 8.638626E-002,8.638626E-002,8.638626E-002,8.638626E-002,8.638626E-002,8.638626E-002,8.638626E-002,8.638626E-002,8.638626E-002,8.638626E-002,
   **   ~~~   ** Air System Named = CENTRAL SYSTEM did not converge for energy
   **   ~~~   ** Check values should be zero. Most Recent values listed first.
   **   ~~~   ** Demand-to-Supply interface energy check value iteration history trace: 1708.985362,1708.985362,1708.985362,1708.985362,1708.985361,1708.985361,1708.985361,1708.985361,1708.985361,1708.985361,
   **   ~~~   ** Supply-to-demand interface deck 1 energy check value iteration history trace: 2630.887763,2630.887763,2630.887763,2630.887762,2630.887762,2630.887762,2630.887762,2630.887762,2630.887761,2630.887761,
   ** Warning ** SimHVAC: Maximum iterations (20) exceeded for all HVAC loops, at ANNUAL, 01/23 10:00 - 10:02
   **   ~~~   ** The solution for one or more of the Air Loop HVAC systems did not appear to converge
   **   ~~~   ** Air System Named = CENTRAL SYSTEM did not converge for mass flow rate
   **   ~~~   ** Check values should be zero. Most Recent values listed first.
   **   ~~~   ** Demand-to-Supply interface mass flow rate check value iteration history trace: 0.106885,0.106885,0.106885,0.106885,0.106885,0.106885,0.106885,0.106885,0.106885,0.106885,
   **   ~~~   ** Supply-to-demand interface deck 1 mass flow rate check value iteration history trace: 0.106885,0.106885,0.106885,0.106885,0.106885,0.106885,0.106885,0.106885,0.106885,0.106885,
   **   ~~~   ** Air System Named = CENTRAL SYSTEM did not converge for energy
   **   ~~~   ** Check values should be zero. Most Recent values listed first.
   **   ~~~   ** Demand-to-Supply interface energy check value iteration history trace: 2118.043898,2118.043898,2118.043898,2118.043898,2118.043898,2118.043897,2118.043897,2118.043897,2118.043897,2118.043897,
   **   ~~~   ** Supply-to-demand interface deck 1 energy check value iteration history trace: 3250.127240,3250.127240,3250.127240,3250.127239,3250.127239,3250.127239,3250.127239,3250.127239,3250.127238,3250.127238,
   ** Warning ** SimHVAC: Maximum iterations (20) exceeded for all HVAC loops, at ANNUAL, 01/27 10:45 - 11:00
   **   ~~~   ** The solution for one or more of the Air Loop HVAC systems did not appear to converge
   **   ~~~   ** Air System Named = CENTRAL SYSTEM did not converge for mass flow rate
   **   ~~~   ** Check values should be zero. Most Recent values listed first.
   **   ~~~   ** Demand-to-Supply interface mass flow rate check value iteration history trace: 0.100700,0.100700,0.100700,0.100700,0.100700,0.100700,0.100700,0.100700,0.100700,0.100700,
   **   ~~~   ** Supply-to-demand interface deck 1 mass flow rate check value iteration history trace: 0.100700,0.100700,0.100700,0.100700,0.100700,0.100700,0.100700,0.100700,0.100700,0.100700,
   **   ~~~   ** Air System Named = CENTRAL SYSTEM did not converge for energy
   **   ~~~   ** Check values should be zero. Most Recent values listed first.
   **   ~~~   ** Demand-to-Supply interface energy check value iteration history trace: 1995.218779,1995.218778,1995.218778,1995.218778,1995.218778,1995.218778,1995.218778,1995.218778,1995.218777,1995.218777,
   **   ~~~   ** Supply-to-demand interface deck 1 energy check value iteration history trace: 3096.144860,3096.144860,3096.144859,3096.144859,3096.144859,3096.144859,3096.144859,3096.144858,3096.144858,3096.144858,
   ** Warning ** SimHVAC: Maximum iterations (20) exceeded for all HVAC loops, at ANNUAL, 01/27 19:23 - 19:30
   **   ~~~   ** The solution for one or more of the Air Loop HVAC systems did not appear to converge
   **   ~~~   ** Air System Named = CENTRAL SYSTEM did not converge for mass flow rate
   **   ~~~   ** Check values should be zero. Most Recent values listed first.
   **   ~~~   ** Demand-to-Supply interface mass flow rate check value iteration history trace: 0.107604,0.107604,0.107604,0.107604,0.107604,0.107604,0.107604,0.107604,0.107604,0.107604,
   **   ~~~   ** Supply-to-demand interface deck 1 mass flow rate check value iteration history trace: 0.107604,0.107604,0.107604,0.107604,0.107604,0.107604,0.107604,0.107604,0.107604,0.107604,
   **   ~~~   ** Air System Named = CENTRAL SYSTEM did not converge for energy
   **   ~~~   ** Check values should be zero. Most Recent values listed first.
   **   ~~~   ** Demand-to-Supply interface energy check value iteration history trace: 2119.286918,2119.286918,2119.286918,2119.286917,2119.286917,2119.286917,2119.286917,2119.286917,2119.286917,2119.286917,
   **   ~~~   ** Supply-to-demand interface deck 1 energy check value iteration history trace: 3277.152719,3277.152719,3277.152718,3277.152718,3277.152718,3277.152718,3277.152718,3277.152717,3277.152717,3277.152717,
   ** Warning ** SimHVAC: Maximum iterations (20) exceeded for all HVAC loops, at ANNUAL, 02/05 13:15 - 13:22
   **   ~~~   ** The solution for one or more of the Air Loop HVAC systems did not appear to converge
   **   ~~~   ** Air System Named = CENTRAL SYSTEM did not converge for mass flow rate
   **   ~~~   ** Check values should be zero. Most Recent values listed first.
   **   ~~~   ** Demand-to-Supply interface mass flow rate check value iteration history trace: 9.348353E-002,9.348353E-002,9.348353E-002,9.348353E-002,9.348353E-002,9.348353E-002,9.348353E-002,9.348353E-002,9.348353E-002,9.348353E-002,
   **   ~~~   ** Supply-to-demand interface deck 1 mass flow rate check value iteration history trace: 9.348353E-002,9.348353E-002,9.348353E-002,9.348353E-002,9.348353E-002,9.348353E-002,9.348353E-002,9.348353E-002,9.348353E-002,9.348353E-002,
   **   ~~~   ** Air System Named = CENTRAL SYSTEM did not converge for energy
   **   ~~~   ** Check values should be zero. Most Recent values listed first.
   **   ~~~   ** Demand-to-Supply interface energy check value iteration history trace: 1852.495891,1852.495891,1852.495891,1852.495891,1852.495891,1852.495891,1852.495890,1852.495890,1852.495890,1852.495890,
   **   ~~~   ** Supply-to-demand interface deck 1 energy check value iteration history trace: 2722.185701,2722.185700,2722.185700,2722.185700,2722.185700,2722.185700,2722.185699,2722.185699,2722.185699,2722.185699,
   ** Warning ** SimHVAC: Maximum iterations (20) exceeded for all HVAC loops, at ANNUAL, 02/12 20:15 - 20:30
   **   ~~~   ** The solution for one or more of the Air Loop HVAC systems did not appear to converge
   **   ~~~   ** Air System Named = CENTRAL SYSTEM did not converge for mass flow rate
   **   ~~~   ** Check values should be zero. Most Recent values listed first.
   **   ~~~   ** Demand-to-Supply interface mass flow rate check value iteration history trace: 0.113270,0.113270,0.113270,0.113270,0.113270,0.113270,0.113270,0.113270,0.113270,0.113270,
   **   ~~~   ** Supply-to-demand interface deck 1 mass flow rate check value iteration history trace: 0.113270,0.113270,0.113270,0.113270,0.113270,0.113270,0.113270,0.113270,0.113270,0.113270,
   **   ~~~   ** Air System Named = CENTRAL SYSTEM did not converge for energy
   **   ~~~   ** Check values should be zero. Most Recent values listed first.
   **   ~~~   ** Demand-to-Supply interface energy check value iteration history trace: 2243.532892,2243.532891,2243.532891,2243.532891,2243.532891,2243.532891,2243.532891,2243.532891,2243.532890,2243.532890,
   **   ~~~   ** Supply-to-demand interface deck 1 energy check value iteration history trace: 3440.211564,3440.211564,3440.211563,3440.211563,3440.211563,3440.211563,3440.211563,3440.211562,3440.211562,3440.211562,
   ** Warning ** SimHVAC: Maximum iterations (20) exceeded for all HVAC loops, at ANNUAL, 03/12 10:13 - 10:15
   **   ~~~   ** The solution for one or more of the Air Loop HVAC systems did not appear to converge
   **   ~~~   ** Air System Named = CENTRAL SYSTEM did not converge for mass flow rate
   **   ~~~   ** Check values should be zero. Most Recent values listed first.
   **   ~~~   ** Demand-to-Supply interface mass flow rate check value iteration history trace: 7.491945E-002,7.491945E-002,7.491945E-002,7.491945E-002,7.491945E-002,7.491945E-002,7.491945E-002,7.491945E-002,7.491945E-002,7.491945E-002,
   **   ~~~   ** Supply-to-demand interface deck 1 mass flow rate check value iteration history trace: 7.491945E-002,7.491945E-002,7.491945E-002,7.491945E-002,7.491945E-002,7.491945E-002,7.491945E-002,7.491945E-002,7.491945E-002,7.491945E-002,
   **   ~~~   ** Air System Named = CENTRAL SYSTEM did not converge for energy
   **   ~~~   ** Check values should be zero. Most Recent values listed first.
   **   ~~~   ** Demand-to-Supply interface energy check value iteration history trace: 1476.506559,1476.506559,1476.506559,1476.506559,1476.506559,1476.506559,1476.506559,1476.506559,1476.506559,1476.506559,
   **   ~~~   ** Supply-to-demand interface deck 1 energy check value iteration history trace: 2547.796682,2547.796682,2547.796682,2547.796682,2547.796682,2547.796682,2547.796682,2547.796681,2547.796681,2547.796681,
   ** Warning ** SimHVAC: Maximum iterations (20) exceeded for all HVAC loops, at ANNUAL, 03/17 21:45 - 22:00
   **   ~~~   ** The solution for one or more of the Air Loop HVAC systems did not appear to converge
   **   ~~~   ** Air System Named = CENTRAL SYSTEM did not converge for mass flow rate
   **   ~~~   ** Check values should be zero. Most Recent values listed first.
   **   ~~~   ** Demand-to-Supply interface mass flow rate check value iteration history trace: 7.928719E-002,7.928719E-002,7.928719E-002,7.928719E-002,7.928719E-002,7.928719E-002,7.928719E-002,7.928719E-002,7.928719E-002,7.928719E-002,
   **   ~~~   ** Supply-to-demand interface deck 1 mass flow rate check value iteration history trace: 7.928719E-002,7.928719E-002,7.928719E-002,7.928719E-002,7.928719E-002,7.928719E-002,7.928719E-002,7.928719E-002,7.928719E-002,7.928719E-002,
   **   ~~~   ** Air System Named = CENTRAL SYSTEM did not converge for energy
   **   ~~~   ** Check values should be zero. Most Recent values listed first.
   **   ~~~   ** Demand-to-Supply interface energy check value iteration history trace: 1568.340245,1568.340244,1568.340244,1568.340244,1568.340244,1568.340244,1568.340244,1568.340244,1568.340244,1568.340244,
   **   ~~~   ** Supply-to-demand interface deck 1 energy check value iteration history trace: 2459.325056,2459.325056,2459.325056,2459.325056,2459.325056,2459.325056,2459.325055,2459.325055,2459.325055,2459.325055,
   ** Warning ** SimHVAC: Maximum iterations (20) exceeded for all HVAC loops, at ANNUAL, 03/28 07:15 - 07:30
   **   ~~~   ** The solution for one or more of the Air Loop HVAC systems did not appear to converge
   **   ~~~   ** Air System Named = CENTRAL SYSTEM did not converge for mass flow rate
   **   ~~~   ** Check values should be zero. Most Recent values listed first.
   **   ~~~   ** Demand-to-Supply interface mass flow rate check value iteration history trace: 5.739575E-002,5.739575E-002,5.739575E-002,5.739575E-002,5.739575E-002,5.739575E-002,5.739575E-002,5.739575E-002,5.739575E-002,5.739575E-002,
   **   ~~~   ** Supply-to-demand interface deck 1 mass flow rate check value iteration history trace: 5.739575E-002,5.739575E-002,5.739575E-002,5.739575E-002,5.739575E-002,5.739575E-002,5.739575E-002,5.739575E-002,5.739575E-002,5.739575E-002,
   **   ~~~   ** Air System Named = CENTRAL SYSTEM did not converge for energy
   **   ~~~   ** Check values should be zero. Most Recent values listed first.
   **   ~~~   ** Demand-to-Supply interface energy check value iteration history trace: 1135.880099,1135.880099,1135.880099,1135.880099,1135.880099,1135.880099,1135.880099,1135.880099,1135.880099,1135.880099,
   **   ~~~   ** Supply-to-demand interface deck 1 energy check value iteration history trace: 1962.450947,1962.450947,1962.450947,1962.450947,1962.450947,1962.450947,1962.450947,1962.450946,1962.450946,1962.450946,
   ** Warning ** SimHVAC: Maximum iterations (20) exceeded for all HVAC loops, at ANNUAL, 03/29 08:15 - 08:17
   **   ~~~   ** The solution for one or more of the Air Loop HVAC systems did not appear to converge
   **   ~~~   ** Air System Named = CENTRAL SYSTEM did not converge for mass flow rate
   **   ~~~   ** Check values should be zero. Most Recent values listed first.
   **   ~~~   ** Demand-to-Supply interface mass flow rate check value iteration history trace: 6.029974E-002,6.029974E-002,6.029974E-002,6.029974E-002,6.029974E-002,6.029974E-002,6.029974E-002,6.029974E-002,6.029974E-002,6.029974E-002,
   **   ~~~   ** Supply-to-demand interface deck 1 mass flow rate check value iteration history trace: 6.029974E-002,6.029974E-002,6.029974E-002,6.029974E-002,6.029974E-002,6.029974E-002,6.029974E-002,6.029974E-002,6.029974E-002,6.029974E-002,
   **   ~~~   ** Air System Named = CENTRAL SYSTEM did not converge for energy
   **   ~~~   ** Check values should be zero. Most Recent values listed first.
   **   ~~~   ** Demand-to-Supply interface energy check value iteration history trace: 1194.950125,1194.950125,1194.950125,1194.950125,1194.950125,1194.950125,1194.950125,1194.950125,1194.950125,1194.950125,
   **   ~~~   ** Supply-to-demand interface deck 1 energy check value iteration history trace: 2097.868381,2097.868381,2097.868381,2097.868381,2097.868381,2097.868381,2097.868381,2097.868381,2097.868381,2097.868381,
   ** Warning ** SimHVAC: Maximum iterations (20) exceeded for all HVAC loops, at ANNUAL, 03/30 09:08 - 09:10
   **   ~~~   ** The solution for one or more of the Air Loop HVAC systems did not appear to converge
   **   ~~~   ** Air System Named = CENTRAL SYSTEM did not converge for mass flow rate
   **   ~~~   ** Check values should be zero. Most Recent values listed first.
   **   ~~~   ** Demand-to-Supply interface mass flow rate check value iteration history trace: 8.783852E-002,8.783852E-002,8.783852E-002,8.783852E-002,8.783852E-002,8.783852E-002,8.783852E-002,8.783852E-002,8.783852E-002,8.783852E-002,
   **   ~~~   ** Supply-to-demand interface deck 1 mass flow rate check value iteration history trace: 8.783852E-002,8.783852E-002,8.783852E-002,8.783852E-002,8.783852E-002,8.783852E-002,8.783852E-002,8.783852E-002,8.783852E-002,8.783852E-002,
   **   ~~~   ** Air System Named = CENTRAL SYSTEM did not converge for energy
   **   ~~~   ** Check values should be zero. Most Recent values listed first.
   **   ~~~   ** Demand-to-Supply interface energy check value iteration history trace: 1737.336030,1737.336030,1737.336030,1737.336029,1737.336029,1737.336029,1737.336029,1737.336029,1737.336029,1737.336029,
   **   ~~~   ** Supply-to-demand interface deck 1 energy check value iteration history trace: 2903.264093,2903.264093,2903.264093,2903.264093,2903.264093,2903.264093,2903.264092,2903.264092,2903.264092,2903.264092,
   ** Warning ** SimHVAC: Maximum iterations (20) exceeded for all HVAC loops, at ANNUAL, 04/02 03:45 - 04:00
   **   ~~~   ** The solution for one or more of the Air Loop HVAC systems did not appear to converge
   **   ~~~   ** Air System Named = CENTRAL SYSTEM did not converge for mass flow rate
   **   ~~~   ** Check values should be zero. Most Recent values listed first.
   **   ~~~   ** Demand-to-Supply interface mass flow rate check value iteration history trace: 7.858107E-002,7.858107E-002,7.858107E-002,7.858107E-002,7.858107E-002,7.858107E-002,7.858107E-002,7.858107E-002,7.858107E-002,7.858107E-002,
   **   ~~~   ** Supply-to-demand interface deck 1 mass flow rate check value iteration history trace: 7.858107E-002,7.858107E-002,7.858107E-002,7.858107E-002,7.858107E-002,7.858107E-002,7.858107E-002,7.858107E-002,7.858107E-002,7.858107E-002,
   **   ~~~   ** Air System Named = CENTRAL SYSTEM did not converge for energy
   **   ~~~   ** Check values should be zero. Most Recent values listed first.
   **   ~~~   ** Demand-to-Supply interface energy check value iteration history trace: 1462.954782,1462.954782,1462.954782,1462.954782,1462.954782,1462.954782,1462.954782,1462.954782,1462.954782,1462.954782,
   **   ~~~   ** Supply-to-demand interface deck 1 energy check value iteration history trace: 2304.069128,2304.069128,2304.069128,2304.069128,2304.069128,2304.069128,2304.069128,2304.069127,2304.069127,2304.069127,
   ** Warning ** SimHVAC: Maximum iterations (20) exceeded for all HVAC loops, at ANNUAL, 04/10 10:45 - 11:00
   **   ~~~   ** The solution for one or more of the Air Loop HVAC systems did not appear to converge
   **   ~~~   ** Air System Named = CENTRAL SYSTEM did not converge for mass flow rate
   **   ~~~   ** Check values should be zero. Most Recent values listed first.
   **   ~~~   ** Demand-to-Supply interface mass flow rate check value iteration history trace: 6.441892E-002,6.441892E-002,6.441892E-002,6.441892E-002,6.441892E-002,6.441892E-002,6.441892E-002,6.441892E-002,6.441892E-002,6.441892E-002,
   **   ~~~   ** Supply-to-demand interface deck 1 mass flow rate check value iteration history trace: 6.441892E-002,6.441892E-002,6.441892E-002,6.441892E-002,6.441892E-002,6.441892E-002,6.441892E-002,6.441892E-002,6.441892E-002,6.441892E-002,
   **   ~~~   ** Air System Named = CENTRAL SYSTEM did not converge for energy
   **   ~~~   ** Check values should be zero. Most Recent values listed first.
   **   ~~~   ** Demand-to-Supply interface energy check value iteration history trace: 1276.572924,1276.572924,1276.572923,1276.572923,1276.572923,1276.572923,1276.572923,1276.572923,1276.572923,1276.572923,
   **   ~~~   ** Supply-to-demand interface deck 1 energy check value iteration history trace: 2173.203328,2173.203328,2173.203327,2173.203327,2173.203327,2173.203327,2173.203327,2173.203327,2173.203327,2173.203327,
   ** Warning ** SimHVAC: Maximum iterations (20) exceeded for all HVAC loops, at ANNUAL, 04/10 10:53 - 11:00
   **   ~~~   ** The solution for one or more of the Air Loop HVAC systems did not appear to converge
   **   ~~~   ** Air System Named = CENTRAL SYSTEM did not converge for mass flow rate
   **   ~~~   ** Check values should be zero. Most Recent values listed first.
   **   ~~~   ** Demand-to-Supply interface mass flow rate check value iteration history trace: 6.431895E-002,6.431895E-002,6.431895E-002,6.431895E-002,6.431895E-002,6.431895E-002,6.431895E-002,6.431895E-002,6.431895E-002,6.431895E-002,
   **   ~~~   ** Supply-to-demand interface deck 1 mass flow rate check value iteration history trace: 6.431895E-002,6.431895E-002,6.431895E-002,6.431895E-002,6.431895E-002,6.431895E-002,6.431895E-002,6.431895E-002,6.431895E-002,6.431895E-002,
   **   ~~~   ** Air System Named = CENTRAL SYSTEM did not converge for energy
   **   ~~~   ** Check values should be zero. Most Recent values listed first.
   **   ~~~   ** Demand-to-Supply interface energy check value iteration history trace: 1274.701373,1274.701373,1274.701373,1274.701373,1274.701373,1274.701373,1274.701373,1274.701373,1274.701373,1274.701373,
   **   ~~~   ** Supply-to-demand interface deck 1 energy check value iteration history trace: 2169.924946,2169.924946,2169.924946,2169.924946,2169.924946,2169.924946,2169.924946,2169.924945,2169.924945,2169.924945,
   ************* Simulation Error Summary *************
   ** Warning ** The following Report Variables were requested but not generated -- check.rdd file
   **   ~~~   ** Either the IDF did not contain these elements, the variable name is misspelled,
   **   ~~~   ** or the requested variable is an advanced output which requires Output : Diagnostics, DisplayAdvancedReportVariables;
   ************* Key=*, VarName=BASEBOARD TOTAL HEATING ENERGY, Frequency=
   ************* Key=*, VarName=WATER HEATER NATURALGAS ENERGY, Frequency=
   ************* Key=*, VarName=COOLING COIL TOTAL HEATING ENERGY, Frequency=
   ************* There are 34 unused schedules in input.
   ************* There are 388 unused week schedules in input.
   ************* There are 396 unused day schedules in input.
   ************* Use Output:Diagnostics,DisplayUnusedSchedules; to see them.
   *************
   ************* ===== Recurring Error Summary =====
   ************* The following recurring error messages occurred.
   *************
   *************  ** Warning ** "TOTAL HOT WATER LOAD" - Target water temperature should be less than or equal to the hot water temperature error continues...
   *************  **   ~~~   **   This error occurred 162943 total times;
   *************  **   ~~~   **   during Warmup 0 times;
   *************  **   ~~~   **   during Sizing 0 times.
   *************  **   ~~~   **   Max=11.793721  Min=2.924806E-003
   *************
   *************  ** Warning ** SimHVAC: Exceeding Maximum iterations for all HVAC loops, during ANNUAL continues
   *************  **   ~~~   **   This error occurred 19 total times;
   *************  **   ~~~   **   during Warmup 0 times;
   *************  **   ~~~   **   during Sizing 0 times.
   *************
   *************
   ************* ===== Final Error Summary =====
   ************* The following error categories occurred.  Consider correcting or noting.
   ************* Nominally Unused Constructions
   ************* ..The nominally unused constructions warning is provided to alert you to potential conditions that can cause
   ************* ..extra time during simulation. Each construction is calculated by the algorithm indicated in the HeatBalanceAlgorithm
   ************* ..object. You may remove the constructions indicated (when you use the DisplayExtraWarnings option).
   *************
   ************* EnergyPlus Warmup Error Summary. During Warmup: 1 Warning; 0 Severe Errors.
   ************* EnergyPlus Sizing Error Summary. During Sizing: 4 Warning; 0 Severe Errors.
   ************* EnergyPlus Completed Successfully-- 162994 Warning; 0 Severe Errors; Elapsed Time=00hr 01min 36.19sec
