Program Version,EnergyPlus, Version 22.2.0-c249759bad, YMD=2023.09.01 20:10,
   ************* Beginning Zone Sizing Calculations
   ** Warning ** ProcessScheduleInput: Schedule:Constant="ALWAYS ON DISCRETE", Schedule Type Limits Name="ONOFF" not found -- will not be validated
   ** Warning ** Foundation:Kiva="KIVA FOUNDATION", no Interior Horizontal Insulation Material Name defined
   **   ~~~   ** Interior Horizontal Insulation Depth will not be used.
   ** Warning ** CheckUsedConstructions: There are 15 nominally unused constructions in input.
   **   ~~~   ** Each Unused construction is shown.
   ************* Construction=INTERIOR FLOOR
   ************* Construction=INTERIOR WINDOW
   ************* Construction=EXTERIOR DOOR
   ************* Construction=INTERIOR DOOR
   ************* Construction=GABLE CONSTRUCTION
   ************* Construction=CRAWL_FLOOR
   ************* Construction=INSULATED PIPE
   ************* Construction=PLAIN PIPE
   ************* Construction=TDD PIPE
   ************* Construction=TDD DOME
   ************* Construction=TDD DIFFUSER
   ************* Construction=CRAWL WALL
   ************* Construction=CEILING-FLOOR-LAYER
   ************* Construction=SLAB CONSTRUCTION W FULL R10 INSULATION
   ************* Construction=SLAB CONSTRUCTION W FULL R5 INSULATION
   ** Warning ** GetDXCoils: Coil:Heating:DX:SingleSpeed="DX_HEATING_COIL" curve values
   **   ~~~   ** ... Defrost Energy Input Ratio Function of Temperature Curve Name = DEFROSTEIR output is not equal to 1.0 (+ or - 10%) at rated conditions.
   **   ~~~   ** ... Curve output at rated conditions = 0.152
   ************* Beginning System Sizing Calculations
   ************* Beginning Plant Sizing Calculations
   ** Warning ** Coil:WaterHeating:AirToWaterHeatPump:Wrapped "HEAT PUMP WATER HEATER EVAPORATOR": Rated air volume flow rate per watt of rated total water heating capacity is out of range
   **   ~~~   ** Min Rated Vol Flow Per Watt=[4.027E-005], Rated Vol Flow Per Watt=[1.510E-004], Max Rated Vol Flow Per Watt=[8.056E-005]. See Input-Output Reference Manual for valid range.
   ************* SizeFan: : Potential issue with equipment sizing for Fan:OnOff HEAT PUMP WATER HEATER FAN
   **   ~~~   ** User-Specified Maximum Flow Rate [m3/s] = 0.22653
   **   ~~~   ** differs from Design Size Maximum Flow Rate [m3/s] = 7.55250E-002
   **   ~~~   ** This may, or may not, indicate mismatched component sizes.
   **   ~~~   ** Verify that the value entered is intended and is consistent with other components.
   ** Warning ** Water heater = WATER HEATER TANK:  Recovery Efficiency and Energy Factor could not be calculated during the test for standard ratings
   **   ~~~   ** Setpoint was never recovered and/or heater never turned on
   ** Warning ** Check input. Pump nominal power or motor efficiency is set to 0, for pump=MAINS PRESSURE
   ** Warning ** Output:Meter: invalid Key Name="ELECTRIC_RANGE:INTERIOREQUIPMENT:ELECTRICITY" - not found.
   ** Warning ** Output:Meter: invalid Key Name="ELECTRIC_DRYER:INTERIOREQUIPMENT:ELECTRICITY" - not found.
   ** Warning ** Output:Meter: invalid Key Name="HEATRECOVERY:ELECTRICITY" - not found.
   ** Warning ** Output:Meter: invalid Key Name="HEATING:NATURALGAS" - not found.
   ** Warning ** Output:Meter: invalid Key Name="WATERSYSTEMS:NATURALGAS" - not found.
   ** Warning ** Output:Meter: invalid Key Name="PROPANE:FACILITY" - not found.
   ** Warning ** Output:Meter: invalid Key Name="HEATING:PROPANE" - not found.
   ************* Testing Individual Branch Integrity
   ************* All Branches passed integrity testing
   ************* Testing Individual Supply Air Path Integrity
   ************* All Supply Air Paths passed integrity testing
   ************* Testing Individual Return Air Path Integrity
   ************* All Return Air Paths passed integrity testing
   ************* No node connection errors were found.
   ************* Beginning Simulation
   ** Warning ** AirflowNetwork::Solver::validate_distribution: Heat pump water heater is simulated along with an AirflowNetwork but is not included in the AirflowNetwork.
   ** Warning ** CalcEquipmentFlowRates: "TOTAL HOT WATER LOAD" - Target water temperature is greater than the hot water temperature by (3.31 C)
   **   ~~~   **  Environment=EXTREME_WINTER, at Simulation time=01/20 07:00 - 07:15
   **   ~~~   ** ...target water temperature     = 53.33 C
   **   ~~~   ** ...hot water temperature        = 50.02 C
   **   ~~~   ** ...Target water temperature should be less than or equal to the hot water temperature. Verify temperature setpoints and schedules.
   ** Warning ** SimHVAC: Maximum iterations (20) exceeded for all HVAC loops, at ANNUAL, 01/04 17:33 - 17:36
   **   ~~~   ** The solution for one or more of the Air Loop HVAC systems did not appear to converge
   **   ~~~   ** Air System Named = CENTRAL SYSTEM did not converge for mass flow rate
   **   ~~~   ** Check values should be zero. Most Recent values listed first.
   **   ~~~   ** Demand-to-Supply interface mass flow rate check value iteration history trace: 8.048581E-002,8.048581E-002,8.048581E-002,8.048581E-002,8.048581E-002,8.048581E-002,8.048581E-002,8.048581E-002,8.048581E-002,8.048581E-002,
   **   ~~~   ** Supply-to-demand interface deck 1 mass flow rate check value iteration history trace: 8.048581E-002,8.048581E-002,8.048581E-002,8.048581E-002,8.048581E-002,8.048581E-002,8.048581E-002,8.048581E-002,8.048581E-002,8.048581E-002,
   **   ~~~   ** Air System Named = CENTRAL SYSTEM did not converge for energy
   **   ~~~   ** Check values should be zero. Most Recent values listed first.
   **   ~~~   ** Demand-to-Supply interface energy check value iteration history trace: 1594.198888,1594.198887,1594.198887,1594.198887,1594.198887,1594.198887,1594.198887,1594.198887,1594.198887,1594.198887,
   **   ~~~   ** Supply-to-demand interface deck 1 energy check value iteration history trace: 2506.240740,2506.240739,2506.240739,2506.240739,2506.240739,2506.240739,2506.240739,2506.240738,2506.240738,2506.240738,
   ** Warning ** SimHVAC: Maximum iterations (20) exceeded for all HVAC loops, at ANNUAL, 01/09 11:30 - 11:45
   **   ~~~   ** The solution for one or more of the Air Loop HVAC systems did not appear to converge
   **   ~~~   ** Air System Named = CENTRAL SYSTEM did not converge for mass flow rate
   **   ~~~   ** Check values should be zero. Most Recent values listed first.
   **   ~~~   ** Demand-to-Supply interface mass flow rate check value iteration history trace: 8.410010E-002,8.410010E-002,8.410010E-002,8.410010E-002,8.410010E-002,8.410010E-002,8.410010E-002,8.410010E-002,8.410010E-002,8.410010E-002,
   **   ~~~   ** Supply-to-demand interface deck 1 mass flow rate check value iteration history trace: 8.410010E-002,8.410010E-002,8.410010E-002,8.410010E-002,8.410010E-002,8.410010E-002,8.410010E-002,8.410010E-002,8.410010E-002,8.410010E-002,
   **   ~~~   ** Air System Named = CENTRAL SYSTEM did not converge for energy
   **   ~~~   ** Check values should be zero. Most Recent values listed first.
   **   ~~~   ** Demand-to-Supply interface energy check value iteration history trace: 1666.490496,1666.490496,1666.490496,1666.490496,1666.490495,1666.490495,1666.490495,1666.490495,1666.490495,1666.490495,
   **   ~~~   ** Supply-to-demand interface deck 1 energy check value iteration history trace: 2704.917928,2704.917928,2704.917928,2704.917927,2704.917927,2704.917927,2704.917927,2704.917927,2704.917927,2704.917926,
   ** Warning ** SimHVAC: Maximum iterations (20) exceeded for all HVAC loops, at ANNUAL, 01/09 21:00 - 21:15
   **   ~~~   ** The solution for one or more of the Air Loop HVAC systems did not appear to converge
   **   ~~~   ** Air System Named = CENTRAL SYSTEM did not converge for mass flow rate
   **   ~~~   ** Check values should be zero. Most Recent values listed first.
   **   ~~~   ** Demand-to-Supply interface mass flow rate check value iteration history trace: 9.156381E-002,9.156381E-002,9.156381E-002,9.156381E-002,9.156381E-002,9.156381E-002,9.156381E-002,9.156381E-002,9.156381E-002,9.156381E-002,
   **   ~~~   ** Supply-to-demand interface deck 1 mass flow rate check value iteration history trace: 9.156381E-002,9.156381E-002,9.156381E-002,9.156381E-002,9.156381E-002,9.156381E-002,9.156381E-002,9.156381E-002,9.156381E-002,9.156381E-002,
   **   ~~~   ** Air System Named = CENTRAL SYSTEM did not converge for energy
   **   ~~~   ** Check values should be zero. Most Recent values listed first.
   **   ~~~   ** Demand-to-Supply interface energy check value iteration history trace: 1809.537762,1809.537762,1809.537762,1809.537762,1809.537762,1809.537762,1809.537762,1809.537762,1809.537761,1809.537761,
   **   ~~~   ** Supply-to-demand interface deck 1 energy check value iteration history trace: 2873.572261,2873.572261,2873.572261,2873.572260,2873.572260,2873.572260,2873.572260,2873.572260,2873.572260,2873.572259,
   ** Warning ** SimHVAC: Maximum iterations (20) exceeded for all HVAC loops, at ANNUAL, 01/19 13:30 - 13:45
   **   ~~~   ** The solution for one or more of the Air Loop HVAC systems did not appear to converge
   **   ~~~   ** Air System Named = CENTRAL SYSTEM did not converge for mass flow rate
   **   ~~~   ** Check values should be zero. Most Recent values listed first.
   **   ~~~   ** Demand-to-Supply interface mass flow rate check value iteration history trace: 4.891712E-002,4.891712E-002,4.891712E-002,4.891712E-002,4.891712E-002,4.891712E-002,4.891712E-002,4.891712E-002,4.891712E-002,4.891712E-002,
   **   ~~~   ** Supply-to-demand interface deck 1 mass flow rate check value iteration history trace: 4.891712E-002,4.891712E-002,4.891712E-002,4.891712E-002,4.891712E-002,4.891712E-002,4.891712E-002,4.891712E-002,4.891712E-002,4.891712E-002,
   **   ~~~   ** Air System Named = CENTRAL SYSTEM did not converge for energy
   **   ~~~   ** Check values should be zero. Most Recent values listed first.
   **   ~~~   ** Demand-to-Supply interface energy check value iteration history trace: 952.434558,952.434558,952.434558,952.434558,952.434558,952.434558,952.434558,952.434558,952.434558,952.434558,
   **   ~~~   ** Supply-to-demand interface deck 1 energy check value iteration history trace: 1796.192809,1796.192809,1796.192809,1796.192808,1796.192808,1796.192808,1796.192808,1796.192808,1796.192808,1796.192808,
   ** Warning ** SimHVAC: Maximum iterations (20) exceeded for all HVAC loops, at ANNUAL, 02/13 09:51 - 09:54
   **   ~~~   ** The solution for one or more of the Air Loop HVAC systems did not appear to converge
   **   ~~~   ** Air System Named = CENTRAL SYSTEM did not converge for mass flow rate
   **   ~~~   ** Check values should be zero. Most Recent values listed first.
   **   ~~~   ** Demand-to-Supply interface mass flow rate check value iteration history trace: 6.721031E-002,6.721031E-002,6.721031E-002,6.721031E-002,6.721031E-002,6.721031E-002,6.721031E-002,6.721031E-002,6.721031E-002,6.721031E-002,
   **   ~~~   ** Supply-to-demand interface deck 1 mass flow rate check value iteration history trace: 6.721031E-002,6.721031E-002,6.721031E-002,6.721031E-002,6.721031E-002,6.721031E-002,6.721031E-002,6.721031E-002,6.721031E-002,6.721031E-002,
   **   ~~~   ** Air System Named = CENTRAL SYSTEM did not converge for energy
   **   ~~~   ** Check values should be zero. Most Recent values listed first.
   **   ~~~   ** Demand-to-Supply interface energy check value iteration history trace: 1331.908854,1331.908854,1331.908854,1331.908854,1331.908854,1331.908854,1331.908854,1331.908854,1331.908854,1331.908854,
   **   ~~~   ** Supply-to-demand interface deck 1 energy check value iteration history trace: 2461.203374,2461.203374,2461.203374,2461.203374,2461.203374,2461.203374,2461.203374,2461.203373,2461.203373,2461.203373,
   ** Warning ** SimHVAC: Maximum iterations (20) exceeded for all HVAC loops, at ANNUAL, 02/14 10:32 - 10:35
   **   ~~~   ** The solution for one or more of the Air Loop HVAC systems did not appear to converge
   **   ~~~   ** Air System Named = CENTRAL SYSTEM did not converge for mass flow rate
   **   ~~~   ** Check values should be zero. Most Recent values listed first.
   **   ~~~   ** Demand-to-Supply interface mass flow rate check value iteration history trace: 9.289669E-002,9.289669E-002,9.289669E-002,9.289669E-002,9.289669E-002,9.289669E-002,9.289669E-002,9.289669E-002,9.289669E-002,9.289669E-002,
   **   ~~~   ** Supply-to-demand interface deck 1 mass flow rate check value iteration history trace: 9.289669E-002,9.289669E-002,9.289669E-002,9.289669E-002,9.289669E-002,9.289669E-002,9.289669E-002,9.289669E-002,9.289669E-002,9.289669E-002,
   **   ~~~   ** Air System Named = CENTRAL SYSTEM did not converge for energy
   **   ~~~   ** Check values should be zero. Most Recent values listed first.
   **   ~~~   ** Demand-to-Supply interface energy check value iteration history trace: 1840.965018,1840.965018,1840.965018,1840.965018,1840.965018,1840.965018,1840.965018,1840.965017,1840.965017,1840.965017,
   **   ~~~   ** Supply-to-demand interface deck 1 energy check value iteration history trace: 3012.157703,3012.157702,3012.157702,3012.157702,3012.157702,3012.157702,3012.157702,3012.157701,3012.157701,3012.157701,
   ** Warning ** SimHVAC: Maximum iterations (20) exceeded for all HVAC loops, at ANNUAL, 02/19 11:30 - 11:45
   **   ~~~   ** The solution for one or more of the Air Loop HVAC systems did not appear to converge
   **   ~~~   ** Air System Named = CENTRAL SYSTEM did not converge for mass flow rate
   **   ~~~   ** Check values should be zero. Most Recent values listed first.
   **   ~~~   ** Demand-to-Supply interface mass flow rate check value iteration history trace: 8.932934E-002,8.932934E-002,8.932934E-002,8.932934E-002,8.932934E-002,8.932934E-002,8.932934E-002,8.932934E-002,8.932934E-002,8.932934E-002,
   **   ~~~   ** Supply-to-demand interface deck 1 mass flow rate check value iteration history trace: 8.932934E-002,8.932934E-002,8.932934E-002,8.932934E-002,8.932934E-002,8.932934E-002,8.932934E-002,8.932934E-002,8.932934E-002,8.932934E-002,
   **   ~~~   ** Air System Named = CENTRAL SYSTEM did not converge for energy
   **   ~~~   ** Check values should be zero. Most Recent values listed first.
   **   ~~~   ** Demand-to-Supply interface energy check value iteration history trace: 1770.083102,1770.083102,1770.083102,1770.083102,1770.083102,1770.083102,1770.083101,1770.083101,1770.083101,1770.083101,
   **   ~~~   ** Supply-to-demand interface deck 1 energy check value iteration history trace: 2829.671364,2829.671364,2829.671363,2829.671363,2829.671363,2829.671363,2829.671363,2829.671363,2829.671362,2829.671362,
   ** Warning ** SimHVAC: Maximum iterations (20) exceeded for all HVAC loops, at ANNUAL, 02/22 17:15 - 17:30
   **   ~~~   ** The solution for one or more of the Air Loop HVAC systems did not appear to converge
   **   ~~~   ** Air System Named = CENTRAL SYSTEM did not converge for mass flow rate
   **   ~~~   ** Check values should be zero. Most Recent values listed first.
   **   ~~~   ** Demand-to-Supply interface mass flow rate check value iteration history trace: 7.618587E-002,7.618587E-002,7.618587E-002,7.618587E-002,7.618587E-002,7.618587E-002,7.618587E-002,7.618587E-002,7.618587E-002,7.618587E-002,
   **   ~~~   ** Supply-to-demand interface deck 1 mass flow rate check value iteration history trace: 7.618587E-002,7.618587E-002,7.618587E-002,7.618587E-002,7.618587E-002,7.618587E-002,7.618587E-002,7.618587E-002,7.618587E-002,7.618587E-002,
   **   ~~~   ** Air System Named = CENTRAL SYSTEM did not converge for energy
   **   ~~~   ** Check values should be zero. Most Recent values listed first.
   **   ~~~   ** Demand-to-Supply interface energy check value iteration history trace: 1498.715906,1498.715906,1498.715905,1498.715905,1498.715905,1498.715904,1498.715904,1498.715904,1498.715904,1498.715903,
   **   ~~~   ** Supply-to-demand interface deck 1 energy check value iteration history trace: 2450.937071,2450.937070,2450.937070,2450.937069,2450.937069,2450.937069,2450.937068,2450.937068,2450.937067,2450.937067,
   ** Warning ** SimHVAC: Maximum iterations (20) exceeded for all HVAC loops, at ANNUAL, 03/04 22:30 - 22:45
   **   ~~~   ** The solution for one or more of the Air Loop HVAC systems did not appear to converge
   **   ~~~   ** Air System Named = CENTRAL SYSTEM did not converge for mass flow rate
   **   ~~~   ** Check values should be zero. Most Recent values listed first.
   **   ~~~   ** Demand-to-Supply interface mass flow rate check value iteration history trace: 7.866576E-002,7.866576E-002,7.866576E-002,7.866576E-002,7.866576E-002,7.866576E-002,7.866576E-002,7.866576E-002,7.866576E-002,7.866576E-002,
   **   ~~~   ** Supply-to-demand interface deck 1 mass flow rate check value iteration history trace: 7.866576E-002,7.866576E-002,7.866576E-002,7.866576E-002,7.866576E-002,7.866576E-002,7.866576E-002,7.866576E-002,7.866576E-002,7.866576E-002,
   **   ~~~   ** Air System Named = CENTRAL SYSTEM did not converge for energy
   **   ~~~   ** Check values should be zero. Most Recent values listed first.
   **   ~~~   ** Demand-to-Supply interface energy check value iteration history trace: 1456.297740,1456.297740,1456.297740,1456.297740,1456.297740,1456.297740,1456.297740,1456.297740,1456.297740,1456.297740,
   **   ~~~   ** Supply-to-demand interface deck 1 energy check value iteration history trace: 2397.908156,2397.908156,2397.908156,2397.908156,2397.908156,2397.908155,2397.908155,2397.908155,2397.908155,2397.908155,
   ** Warning ** SimHVAC: Maximum iterations (20) exceeded for all HVAC loops, at ANNUAL, 03/13 11:47 - 11:50
   **   ~~~   ** The solution for one or more of the Air Loop HVAC systems did not appear to converge
   **   ~~~   ** Air System Named = CENTRAL SYSTEM did not converge for mass flow rate
   **   ~~~   ** Check values should be zero. Most Recent values listed first.
   **   ~~~   ** Demand-to-Supply interface mass flow rate check value iteration history trace: 7.094508E-002,7.094508E-002,7.094508E-002,7.094508E-002,7.094508E-002,7.094508E-002,7.094508E-002,7.094508E-002,7.094508E-002,7.094508E-002,
   **   ~~~   ** Supply-to-demand interface deck 1 mass flow rate check value iteration history trace: 7.094508E-002,7.094508E-002,7.094508E-002,7.094508E-002,7.094508E-002,7.094508E-002,7.094508E-002,7.094508E-002,7.094508E-002,7.094508E-002,
   **   ~~~   ** Air System Named = CENTRAL SYSTEM did not converge for energy
   **   ~~~   ** Check values should be zero. Most Recent values listed first.
   **   ~~~   ** Demand-to-Supply interface energy check value iteration history trace: 1403.655707,1403.655707,1403.655707,1403.655707,1403.655707,1403.655707,1403.655707,1403.655707,1403.655707,1403.655707,
   **   ~~~   ** Supply-to-demand interface deck 1 energy check value iteration history trace: 2317.121620,2317.121619,2317.121619,2317.121619,2317.121619,2317.121619,2317.121619,2317.121619,2317.121619,2317.121618,
   ** Warning ** SimHVAC: Maximum iterations (20) exceeded for all HVAC loops, at ANNUAL, 03/15 09:35 - 09:40
   **   ~~~   ** The solution for one or more of the Air Loop HVAC systems did not appear to converge
   **   ~~~   ** Air System Named = CENTRAL SYSTEM did not converge for mass flow rate
   **   ~~~   ** Check values should be zero. Most Recent values listed first.
   **   ~~~   ** Demand-to-Supply interface mass flow rate check value iteration history trace: 6.720025E-002,6.720025E-002,6.720025E-002,6.720025E-002,6.720025E-002,6.720025E-002,6.720025E-002,6.720025E-002,6.720025E-002,6.720025E-002,
   **   ~~~   ** Supply-to-demand interface deck 1 mass flow rate check value iteration history trace: 6.720025E-002,6.720025E-002,6.720025E-002,6.720025E-002,6.720025E-002,6.720025E-002,6.720025E-002,6.720025E-002,6.720025E-002,6.720025E-002,
   **   ~~~   ** Air System Named = CENTRAL SYSTEM did not converge for energy
   **   ~~~   ** Check values should be zero. Most Recent values listed first.
   **   ~~~   ** Demand-to-Supply interface energy check value iteration history trace: 1331.796384,1331.796384,1331.796384,1331.796384,1331.796384,1331.796384,1331.796384,1331.796384,1331.796384,1331.796384,
   **   ~~~   ** Supply-to-demand interface deck 1 energy check value iteration history trace: 2467.252706,2467.252706,2467.252706,2467.252706,2467.252706,2467.252705,2467.252705,2467.252705,2467.252705,2467.252705,
   ** Warning ** SimHVAC: Maximum iterations (20) exceeded for all HVAC loops, at ANNUAL, 03/20 14:00 - 14:15
   **   ~~~   ** The solution for one or more of the Air Loop HVAC systems did not appear to converge
   **   ~~~   ** Air System Named = CENTRAL SYSTEM did not converge for mass flow rate
   **   ~~~   ** Check values should be zero. Most Recent values listed first.
   **   ~~~   ** Demand-to-Supply interface mass flow rate check value iteration history trace: 2.627331E-002,2.627331E-002,2.627331E-002,2.627331E-002,2.627331E-002,2.627331E-002,2.627331E-002,2.627331E-002,2.627331E-002,2.627331E-002,
   **   ~~~   ** Supply-to-demand interface deck 1 mass flow rate check value iteration history trace: 2.627331E-002,2.627331E-002,2.627331E-002,2.627331E-002,2.627331E-002,2.627331E-002,2.627331E-002,2.627331E-002,2.627331E-002,2.627331E-002,
   **   ~~~   ** Air System Named = CENTRAL SYSTEM did not converge for energy
   **   ~~~   ** Check values should be zero. Most Recent values listed first.
   **   ~~~   ** Demand-to-Supply interface energy check value iteration history trace: 520.639390,520.639390,520.639390,520.639390,520.639390,520.639389,520.639389,520.639389,520.639389,520.639389,
   **   ~~~   ** Supply-to-demand interface deck 1 energy check value iteration history trace: 1032.924507,1032.924507,1032.924507,1032.924506,1032.924506,1032.924506,1032.924506,1032.924506,1032.924506,1032.924506,
   **   ~~~   ** Node named ZONE INLET NODE shows oscillating temperatures across iterations with a repeated value of 39.125073
   **   ~~~   ** Node named ZONE INLET NODE temperature [C] iteration history trace (most recent first): 39.125073,39.125073,39.125073,39.125073,39.125072,39.125072,39.125072,39.125071,39.125071,39.125071,
   ** Warning ** SimHVAC: Maximum iterations (20) exceeded for all HVAC loops, at ANNUAL, 03/23 03:45 - 04:00
   **   ~~~   ** The solution for one or more of the Air Loop HVAC systems did not appear to converge
   **   ~~~   ** Air System Named = CENTRAL SYSTEM did not converge for mass flow rate
   **   ~~~   ** Check values should be zero. Most Recent values listed first.
   **   ~~~   ** Demand-to-Supply interface mass flow rate check value iteration history trace: 3.609907E-002,3.609907E-002,3.609907E-002,3.609907E-002,3.609907E-002,3.609907E-002,3.609907E-002,3.609907E-002,3.609907E-002,3.609907E-002,
   **   ~~~   ** Supply-to-demand interface deck 1 mass flow rate check value iteration history trace: 3.609907E-002,3.609907E-002,3.609907E-002,3.609907E-002,3.609907E-002,3.609907E-002,3.609907E-002,3.609907E-002,3.609907E-002,3.609907E-002,
   **   ~~~   ** Air System Named = CENTRAL SYSTEM did not converge for energy
   **   ~~~   ** Check values should be zero. Most Recent values listed first.
   **   ~~~   ** Demand-to-Supply interface energy check value iteration history trace: 669.325591,669.325591,669.325591,669.325590,669.325590,669.325590,669.325590,669.325590,669.325590,669.325590,
   **   ~~~   ** Supply-to-demand interface deck 1 energy check value iteration history trace: 1384.003580,1384.003580,1384.003580,1384.003580,1384.003580,1384.003580,1384.003580,1384.003580,1384.003580,1384.003580,
   ** Warning ** SimHVAC: Maximum iterations (20) exceeded for all HVAC loops, at ANNUAL, 03/29 10:49 - 10:52
   **   ~~~   ** The solution for one or more of the Air Loop HVAC systems did not appear to converge
   **   ~~~   ** Air System Named = CENTRAL SYSTEM did not converge for mass flow rate
   **   ~~~   ** Check values should be zero. Most Recent values listed first.
   **   ~~~   ** Demand-to-Supply interface mass flow rate check value iteration history trace: 7.746983E-002,7.746983E-002,7.746983E-002,7.746983E-002,7.746983E-002,7.746983E-002,7.746983E-002,7.746983E-002,7.746983E-002,7.746983E-002,
   **   ~~~   ** Supply-to-demand interface deck 1 mass flow rate check value iteration history trace: 7.746983E-002,7.746983E-002,7.746983E-002,7.746983E-002,7.746983E-002,7.746983E-002,7.746983E-002,7.746983E-002,7.746983E-002,7.746983E-002,
   **   ~~~   ** Air System Named = CENTRAL SYSTEM did not converge for energy
   **   ~~~   ** Check values should be zero. Most Recent values listed first.
   **   ~~~   ** Demand-to-Supply interface energy check value iteration history trace: 1535.267935,1535.267935,1535.267935,1535.267934,1535.267934,1535.267934,1535.267934,1535.267934,1535.267934,1535.267934,
   **   ~~~   ** Supply-to-demand interface deck 1 energy check value iteration history trace: 2596.821475,2596.821475,2596.821474,2596.821474,2596.821474,2596.821474,2596.821474,2596.821474,2596.821474,2596.821473,
   ************* Simulation Error Summary *************
   ** Warning ** The following Report Variables were requested but not generated -- check.rdd file
   **   ~~~   ** Either the IDF did not contain these elements, the variable name is misspelled,
   **   ~~~   ** or the requested variable is an advanced output which requires Output : Diagnostics, DisplayAdvancedReportVariables;
   ************* Key=*, VarName=BASEBOARD TOTAL HEATING ENERGY, Frequency=
   ************* Key=*, VarName=WATER HEATER NATURALGAS ENERGY, Frequency=
   ************* Key=*, VarName=COOLING COIL TOTAL HEATING ENERGY, Frequency=
   ************* There are 34 unused schedules in input.
   ************* There are 388 unused week schedules in input.
   ************* There are 396 unused day schedules in input.
   ************* Use Output:Diagnostics,DisplayUnusedSchedules; to see them.
   *************
   ************* ===== Recurring Error Summary =====
   ************* The following recurring error messages occurred.
   *************
   *************  ** Warning ** "TOTAL HOT WATER LOAD" - Target water temperature should be less than or equal to the hot water temperature error continues...
   *************  **   ~~~   **   This error occurred 138447 total times;
   *************  **   ~~~   **   during Warmup 0 times;
   *************  **   ~~~   **   during Sizing 0 times.
   *************  **   ~~~   **   Max=15.467494  Min=2.551373E-004
   *************
   *************  ** Warning ** SimHVAC: Exceeding Maximum iterations for all HVAC loops, during ANNUAL continues
   *************  **   ~~~   **   This error occurred 25 total times;
   *************  **   ~~~   **   during Warmup 0 times;
   *************  **   ~~~   **   during Sizing 0 times.
   *************
   *************
   ************* ===== Final Error Summary =====
   ************* The following error categories occurred.  Consider correcting or noting.
   ************* Nominally Unused Constructions
   ************* ..The nominally unused constructions warning is provided to alert you to potential conditions that can cause
   ************* ..extra time during simulation. Each construction is calculated by the algorithm indicated in the HeatBalanceAlgorithm
   ************* ..object. You may remove the constructions indicated (when you use the DisplayExtraWarnings option).
   *************
   ************* EnergyPlus Warmup Error Summary. During Warmup: 1 Warning; 0 Severe Errors.
   ************* EnergyPlus Sizing Error Summary. During Sizing: 4 Warning; 0 Severe Errors.
   ************* EnergyPlus Completed Successfully-- 138503 Warning; 0 Severe Errors; Elapsed Time=00hr 01min 31.59sec
