Program Version,EnergyPlus, Version 22.2.0-c249759bad, YMD=2023.09.01 15:14,
   ************* Beginning Zone Sizing Calculations
   ** Warning ** ProcessScheduleInput: Schedule:Constant="ALWAYS ON DISCRETE", Schedule Type Limits Name="ONOFF" not found -- will not be validated
   ** Warning ** Foundation:Kiva="KIVA FOUNDATION", no Interior Horizontal Insulation Material Name defined
   **   ~~~   ** Interior Horizontal Insulation Depth will not be used.
   ** Warning ** CheckUsedConstructions: There are 15 nominally unused constructions in input.
   **   ~~~   ** Each Unused construction is shown.
   ************* Construction=INTERIOR FLOOR
   ************* Construction=INTERIOR WINDOW
   ************* Construction=EXTERIOR DOOR
   ************* Construction=INTERIOR DOOR
   ************* Construction=GABLE CONSTRUCTION
   ************* Construction=CRAWL_FLOOR
   ************* Construction=INSULATED PIPE
   ************* Construction=PLAIN PIPE
   ************* Construction=TDD PIPE
   ************* Construction=TDD DOME
   ************* Construction=TDD DIFFUSER
   ************* Construction=CRAWL WALL
   ************* Construction=CEILING-FLOOR-LAYER
   ************* Construction=SLAB CONSTRUCTION W FULL R10 INSULATION
   ************* Construction=SLAB CONSTRUCTION W FULL R5 INSULATION
   ** Warning ** GetDXCoils: Coil:Heating:DX:SingleSpeed="DX_HEATING_COIL" curve values
   **   ~~~   ** ... Defrost Energy Input Ratio Function of Temperature Curve Name = DEFROSTEIR output is not equal to 1.0 (+ or - 10%) at rated conditions.
   **   ~~~   ** ... Curve output at rated conditions = 0.152
   ************* Beginning System Sizing Calculations
   ************* Beginning Plant Sizing Calculations
   ** Warning ** SizeDXCoil Coil:Cooling:DX:SingleSpeed DX_COOLING_COIL
   **   ~~~   ** ...Gross Rated Total Cooling Capacity [W] will be limited by the maximum rated volume flow per rated total capacity ratio.
   **   ~~~   ** ...DX coil volume flow rate ( m3/s ) = 0.406126
   **   ~~~   ** ...Requested capacity ( W ) = 6125.042
   **   ~~~   ** ...Requested flow/capacity ratio ( m3/s/W ) = 6.630E-005
   **   ~~~   ** ...Maximum flow/capacity ratio ( m3/s/W ) = 6.041E-005
   **   ~~~   ** ...Adjusted capacity ( W ) = 6722.842
   ** Warning ** Coil:WaterHeating:AirToWaterHeatPump:Wrapped "HEAT PUMP WATER HEATER EVAPORATOR": Rated air volume flow rate per watt of rated total water heating capacity is out of range
   **   ~~~   ** Min Rated Vol Flow Per Watt=[4.027E-005], Rated Vol Flow Per Watt=[1.386E-004], Max Rated Vol Flow Per Watt=[8.056E-005]. See Input-Output Reference Manual for valid range.
   ** Warning ** Water heater = WATER HEATER TANK:  Recovery Efficiency and Energy Factor could not be calculated during the test for standard ratings
   **   ~~~   ** Setpoint was never recovered and/or heater never turned on
   ** Warning ** Check input. Pump nominal power or motor efficiency is set to 0, for pump=MAINS PRESSURE
   ** Warning ** Output:Meter: invalid Key Name="ELECTRIC_RANGE:INTERIOREQUIPMENT:ELECTRICITY" - not found.
   ** Warning ** Output:Meter: invalid Key Name="ELECTRIC_DRYER:INTERIOREQUIPMENT:ELECTRICITY" - not found.
   ** Warning ** Output:Meter: invalid Key Name="HEATRECOVERY:ELECTRICITY" - not found.
   ** Warning ** Output:Meter: invalid Key Name="HEATING:NATURALGAS" - not found.
   ** Warning ** Output:Meter: invalid Key Name="WATERSYSTEMS:NATURALGAS" - not found.
   ** Warning ** Output:Meter: invalid Key Name="PROPANE:FACILITY" - not found.
   ** Warning ** Output:Meter: invalid Key Name="HEATING:PROPANE" - not found.
   ************* Testing Individual Branch Integrity
   ************* All Branches passed integrity testing
   ************* Testing Individual Supply Air Path Integrity
   ************* All Supply Air Paths passed integrity testing
   ************* Testing Individual Return Air Path Integrity
   ************* All Return Air Paths passed integrity testing
   ************* No node connection errors were found.
   ************* Beginning Simulation
   ** Warning ** AirflowNetwork::Solver::validate_distribution: Heat pump water heater is simulated along with an AirflowNetwork but is not included in the AirflowNetwork.
   ** Warning ** CalcEquipmentFlowRates: "TOTAL HOT WATER LOAD" - Target water temperature is greater than the hot water temperature by (1.68 C)
   **   ~~~   **  Environment=EXTREME_WINTER, at Simulation time=01/15 06:00 - 06:15
   **   ~~~   ** ...target water temperature     = 53.33 C
   **   ~~~   ** ...hot water temperature        = 51.65 C
   **   ~~~   ** ...Target water temperature should be less than or equal to the hot water temperature. Verify temperature setpoints and schedules.
   ** Warning ** SimHVAC: Maximum iterations (20) exceeded for all HVAC loops, at ANNUAL, 01/21 18:34 - 18:38
   **   ~~~   ** The solution for one or more of the Air Loop HVAC systems did not appear to converge
   **   ~~~   ** Air System Named = CENTRAL SYSTEM did not converge for mass flow rate
   **   ~~~   ** Check values should be zero. Most Recent values listed first.
   **   ~~~   ** Demand-to-Supply interface mass flow rate check value iteration history trace: 0.105116,0.105116,0.105116,0.105116,0.105116,0.105116,0.105116,0.105116,0.105116,0.105116,
   **   ~~~   ** Supply-to-demand interface deck 1 mass flow rate check value iteration history trace: 0.105116,0.105116,0.105116,0.105116,0.105116,0.105116,0.105116,0.105116,0.105116,0.105116,
   **   ~~~   ** Air System Named = CENTRAL SYSTEM did not converge for energy
   **   ~~~   ** Check values should be zero. Most Recent values listed first.
   **   ~~~   ** Demand-to-Supply interface energy check value iteration history trace: 2080.231437,2080.231437,2080.231437,2080.231437,2080.231437,2080.231436,2080.231436,2080.231436,2080.231436,2080.231436,
   **   ~~~   ** Supply-to-demand interface deck 1 energy check value iteration history trace: 3071.264395,3071.264395,3071.264394,3071.264394,3071.264394,3071.264394,3071.264393,3071.264393,3071.264393,3071.264393,
   ** Warning ** SimHVAC: Maximum iterations (20) exceeded for all HVAC loops, at ANNUAL, 02/12 10:30 - 10:45
   **   ~~~   ** The solution for one or more of the Air Loop HVAC systems did not appear to converge
   **   ~~~   ** Air System Named = CENTRAL SYSTEM did not converge for mass flow rate
   **   ~~~   ** Check values should be zero. Most Recent values listed first.
   **   ~~~   ** Demand-to-Supply interface mass flow rate check value iteration history trace: 9.351262E-002,9.351262E-002,9.351262E-002,9.351262E-002,9.351262E-002,9.351262E-002,9.351262E-002,9.351262E-002,9.351262E-002,9.351262E-002,
   **   ~~~   ** Supply-to-demand interface deck 1 mass flow rate check value iteration history trace: 9.351262E-002,9.351262E-002,9.351262E-002,9.351262E-002,9.351262E-002,9.351262E-002,9.351262E-002,9.351262E-002,9.351262E-002,9.351262E-002,
   **   ~~~   ** Air System Named = CENTRAL SYSTEM did not converge for energy
   **   ~~~   ** Check values should be zero. Most Recent values listed first.
   **   ~~~   ** Demand-to-Supply interface energy check value iteration history trace: 1851.158801,1851.158801,1851.158801,1851.158801,1851.158801,1851.158801,1851.158801,1851.158800,1851.158800,1851.158800,
   **   ~~~   ** Supply-to-demand interface deck 1 energy check value iteration history trace: 3081.001143,3081.001143,3081.001143,3081.001143,3081.001143,3081.001142,3081.001142,3081.001142,3081.001142,3081.001142,
   ** Warning ** WetBulb not converged after 101 iterations(PsyTwbFnTdbWPb)
   **   ~~~   **  Routine=Unknown, Environment=ANNUAL, at Simulation time=03/02 07:15 - 07:30
   **   ~~~   **  Input Temperature = 2.80
   **   ~~~   **  Input Humidity Ratio= 2.672469E-003
   **   ~~~   **  Input Pressure = 100442.75
   **   ~~~   **  Resultant Temperature= 1.26E-002
   ** Warning ** SimHVAC: Maximum iterations (20) exceeded for all HVAC loops, at ANNUAL, 03/02 18:35 - 18:40
   **   ~~~   ** The solution for one or more of the Air Loop HVAC systems did not appear to converge
   **   ~~~   ** Air System Named = CENTRAL SYSTEM did not converge for mass flow rate
   **   ~~~   ** Check values should be zero. Most Recent values listed first.
   **   ~~~   ** Demand-to-Supply interface mass flow rate check value iteration history trace: 0.103413,0.103413,0.103413,0.103413,0.103413,0.103413,0.103413,0.103413,0.103413,0.103413,
   **   ~~~   ** Supply-to-demand interface deck 1 mass flow rate check value iteration history trace: 0.103413,0.103413,0.103413,0.103413,0.103413,0.103413,0.103413,0.103413,0.103413,0.103413,
   **   ~~~   ** Air System Named = CENTRAL SYSTEM did not converge for energy
   **   ~~~   ** Check values should be zero. Most Recent values listed first.
   **   ~~~   ** Demand-to-Supply interface energy check value iteration history trace: 2061.074611,2061.074611,2061.074611,2061.074611,2061.074611,2061.074611,2061.074611,2061.074610,2061.074610,2061.074610,
   **   ~~~   ** Supply-to-demand interface deck 1 energy check value iteration history trace: 3255.138634,3255.138634,3255.138634,3255.138634,3255.138634,3255.138633,3255.138633,3255.138633,3255.138633,3255.138633,
   ** Warning ** SimHVAC: Maximum iterations (20) exceeded for all HVAC loops, at ANNUAL, 03/05 09:45 - 09:47
   **   ~~~   ** The solution for one or more of the Air Loop HVAC systems did not appear to converge
   **   ~~~   ** Air System Named = CENTRAL SYSTEM did not converge for mass flow rate
   **   ~~~   ** Check values should be zero. Most Recent values listed first.
   **   ~~~   ** Demand-to-Supply interface mass flow rate check value iteration history trace: 8.767969E-002,8.767969E-002,8.767969E-002,8.767969E-002,8.767969E-002,8.767969E-002,8.767969E-002,8.767969E-002,8.767969E-002,8.767969E-002,
   **   ~~~   ** Supply-to-demand interface deck 1 mass flow rate check value iteration history trace: 8.767969E-002,8.767969E-002,8.767969E-002,8.767969E-002,8.767969E-002,8.767969E-002,8.767969E-002,8.767969E-002,8.767969E-002,8.767969E-002,
   **   ~~~   ** Air System Named = CENTRAL SYSTEM did not converge for energy
   **   ~~~   ** Check values should be zero. Most Recent values listed first.
   **   ~~~   ** Demand-to-Supply interface energy check value iteration history trace: 1737.522143,1737.522143,1737.522143,1737.522143,1737.522143,1737.522143,1737.522143,1737.522143,1737.522143,1737.522143,
   **   ~~~   ** Supply-to-demand interface deck 1 energy check value iteration history trace: 3005.466489,3005.466489,3005.466488,3005.466488,3005.466488,3005.466488,3005.466488,3005.466488,3005.466488,3005.466488,
   ** Warning ** SimHVAC: Maximum iterations (20) exceeded for all HVAC loops, at ANNUAL, 03/12 11:18 - 11:21
   **   ~~~   ** The solution for one or more of the Air Loop HVAC systems did not appear to converge
   **   ~~~   ** Air System Named = CENTRAL SYSTEM did not converge for mass flow rate
   **   ~~~   ** Check values should be zero. Most Recent values listed first.
   **   ~~~   ** Demand-to-Supply interface mass flow rate check value iteration history trace: 9.676933E-002,9.676933E-002,9.676933E-002,9.676933E-002,9.676933E-002,9.676933E-002,9.676933E-002,9.676933E-002,9.676933E-002,9.676933E-002,
   **   ~~~   ** Supply-to-demand interface deck 1 mass flow rate check value iteration history trace: 9.676933E-002,9.676933E-002,9.676933E-002,9.676933E-002,9.676933E-002,9.676933E-002,9.676933E-002,9.676933E-002,9.676933E-002,9.676933E-002,
   **   ~~~   ** Air System Named = CENTRAL SYSTEM did not converge for energy
   **   ~~~   ** Check values should be zero. Most Recent values listed first.
   **   ~~~   ** Demand-to-Supply interface energy check value iteration history trace: 1917.783326,1917.783326,1917.783326,1917.783326,1917.783325,1917.783325,1917.783325,1917.783325,1917.783325,1917.783325,
   **   ~~~   ** Supply-to-demand interface deck 1 energy check value iteration history trace: 2946.372353,2946.372353,2946.372353,2946.372353,2946.372352,2946.372352,2946.372352,2946.372352,2946.372352,2946.372351,
   ** Warning ** SimHVAC: Maximum iterations (20) exceeded for all HVAC loops, at ANNUAL, 03/12 11:45 - 11:52
   **   ~~~   ** The solution for one or more of the Air Loop HVAC systems did not appear to converge
   **   ~~~   ** Air System Named = CENTRAL SYSTEM did not converge for mass flow rate
   **   ~~~   ** Check values should be zero. Most Recent values listed first.
   **   ~~~   ** Demand-to-Supply interface mass flow rate check value iteration history trace: 8.887872E-002,8.887872E-002,8.887872E-002,8.887872E-002,8.887872E-002,8.887872E-002,8.887872E-002,8.887872E-002,8.887872E-002,8.887872E-002,
   **   ~~~   ** Supply-to-demand interface deck 1 mass flow rate check value iteration history trace: 8.887872E-002,8.887872E-002,8.887872E-002,8.887872E-002,8.887872E-002,8.887872E-002,8.887872E-002,8.887872E-002,8.887872E-002,8.887872E-002,
   **   ~~~   ** Air System Named = CENTRAL SYSTEM did not converge for energy
   **   ~~~   ** Check values should be zero. Most Recent values listed first.
   **   ~~~   ** Demand-to-Supply interface energy check value iteration history trace: 1755.230216,1755.230216,1755.230216,1755.230216,1755.230215,1755.230215,1755.230215,1755.230215,1755.230215,1755.230215,
   **   ~~~   ** Supply-to-demand interface deck 1 energy check value iteration history trace: 2713.786103,2713.786103,2713.786103,2713.786103,2713.786103,2713.786102,2713.786102,2713.786102,2713.786102,2713.786102,
   ** Warning ** SimHVAC: Maximum iterations (20) exceeded for all HVAC loops, at ANNUAL, 03/30 06:15 - 06:30
   **   ~~~   ** The solution for one or more of the Air Loop HVAC systems did not appear to converge
   **   ~~~   ** Air System Named = CENTRAL SYSTEM did not converge for mass flow rate
   **   ~~~   ** Check values should be zero. Most Recent values listed first.
   **   ~~~   ** Demand-to-Supply interface mass flow rate check value iteration history trace: 6.491023E-002,6.491023E-002,6.491023E-002,6.491023E-002,6.491023E-002,6.491023E-002,6.491023E-002,6.491023E-002,6.491023E-002,6.491023E-002,
   **   ~~~   ** Supply-to-demand interface deck 1 mass flow rate check value iteration history trace: 6.491023E-002,6.491023E-002,6.491023E-002,6.491023E-002,6.491023E-002,6.491023E-002,6.491023E-002,6.491023E-002,6.491023E-002,6.491023E-002,
   **   ~~~   ** Air System Named = CENTRAL SYSTEM did not converge for energy
   **   ~~~   ** Check values should be zero. Most Recent values listed first.
   **   ~~~   ** Demand-to-Supply interface energy check value iteration history trace: 1274.688492,1274.688492,1274.688492,1274.688492,1274.688492,1274.688492,1274.688492,1274.688492,1274.688492,1274.688492,
   **   ~~~   ** Supply-to-demand interface deck 1 energy check value iteration history trace: 2249.491203,2249.491203,2249.491203,2249.491203,2249.491203,2249.491203,2249.491203,2249.491203,2249.491203,2249.491203,
   ** Warning ** SimHVAC: Maximum iterations (20) exceeded for all HVAC loops, at ANNUAL, 04/02 10:04 - 10:08
   **   ~~~   ** The solution for one or more of the Air Loop HVAC systems did not appear to converge
   **   ~~~   ** Air System Named = CENTRAL SYSTEM did not converge for mass flow rate
   **   ~~~   ** Check values should be zero. Most Recent values listed first.
   **   ~~~   ** Demand-to-Supply interface mass flow rate check value iteration history trace: 8.018667E-002,8.018667E-002,8.018667E-002,8.018667E-002,8.018667E-002,8.018667E-002,8.018667E-002,8.018667E-002,8.018667E-002,8.018667E-002,
   **   ~~~   ** Supply-to-demand interface deck 1 mass flow rate check value iteration history trace: 8.018667E-002,8.018667E-002,8.018667E-002,8.018667E-002,8.018667E-002,8.018667E-002,8.018667E-002,8.018667E-002,8.018667E-002,8.018667E-002,
   **   ~~~   ** Air System Named = CENTRAL SYSTEM did not converge for energy
   **   ~~~   ** Check values should be zero. Most Recent values listed first.
   **   ~~~   ** Demand-to-Supply interface energy check value iteration history trace: 1589.056972,1589.056972,1589.056972,1589.056972,1589.056972,1589.056972,1589.056972,1589.056971,1589.056971,1589.056971,
   **   ~~~   ** Supply-to-demand interface deck 1 energy check value iteration history trace: 2793.481953,2793.481953,2793.481953,2793.481952,2793.481952,2793.481952,2793.481952,2793.481952,2793.481952,2793.481952,
   ** Warning ** SimHVAC: Maximum iterations (20) exceeded for all HVAC loops, at ANNUAL, 04/15 18:15 - 18:30
   **   ~~~   ** The solution for one or more of the Air Loop HVAC systems did not appear to converge
   **   ~~~   ** Air System Named = CENTRAL SYSTEM did not converge for mass flow rate
   **   ~~~   ** Check values should be zero. Most Recent values listed first.
   **   ~~~   ** Demand-to-Supply interface mass flow rate check value iteration history trace: 0.100290,0.100290,0.100290,0.100290,0.100290,0.100290,0.100290,0.100290,0.100290,0.100290,
   **   ~~~   ** Supply-to-demand interface deck 1 mass flow rate check value iteration history trace: 0.100290,0.100290,0.100290,0.100290,0.100290,0.100290,0.100290,0.100290,0.100290,0.100290,
   **   ~~~   ** Air System Named = CENTRAL SYSTEM did not converge for energy
   **   ~~~   ** Check values should be zero. Most Recent values listed first.
   **   ~~~   ** Demand-to-Supply interface energy check value iteration history trace: 1982.863697,1982.863697,1982.863697,1982.863697,1982.863697,1982.863697,1982.863696,1982.863696,1982.863696,1982.863696,
   **   ~~~   ** Supply-to-demand interface deck 1 energy check value iteration history trace: 3047.662122,3047.662121,3047.662121,3047.662121,3047.662121,3047.662121,3047.662120,3047.662120,3047.662120,3047.662120,
   ** Warning ** SimHVAC: Maximum iterations (20) exceeded for all HVAC loops, at ANNUAL, 04/24 07:15 - 07:30
   **   ~~~   ** The solution for one or more of the Air Loop HVAC systems did not appear to converge
   **   ~~~   ** Air System Named = CENTRAL SYSTEM did not converge for mass flow rate
   **   ~~~   ** Check values should be zero. Most Recent values listed first.
   **   ~~~   ** Demand-to-Supply interface mass flow rate check value iteration history trace: 8.166468E-002,8.166468E-002,8.166468E-002,8.166468E-002,8.166468E-002,8.166468E-002,8.166468E-002,8.166468E-002,8.166468E-002,8.166468E-002,
   **   ~~~   ** Supply-to-demand interface deck 1 mass flow rate check value iteration history trace: 8.166468E-002,8.166468E-002,8.166468E-002,8.166468E-002,8.166468E-002,8.166468E-002,8.166468E-002,8.166468E-002,8.166468E-002,8.166468E-002,
   **   ~~~   ** Air System Named = CENTRAL SYSTEM did not converge for energy
   **   ~~~   ** Check values should be zero. Most Recent values listed first.
   **   ~~~   ** Demand-to-Supply interface energy check value iteration history trace: 1619.028281,1619.028281,1619.028281,1619.028281,1619.028281,1619.028281,1619.028281,1619.028281,1619.028280,1619.028280,
   **   ~~~   ** Supply-to-demand interface deck 1 energy check value iteration history trace: 2811.412182,2811.412182,2811.412182,2811.412182,2811.412182,2811.412182,2811.412182,2811.412181,2811.412181,2811.412181,
   ** Warning ** SimHVAC: Maximum iterations (20) exceeded for all HVAC loops, at ANNUAL, 05/14 11:30 - 11:45
   **   ~~~   ** The solution for one or more of the Air Loop HVAC systems did not appear to converge
   **   ~~~   ** Air System Named = CENTRAL SYSTEM did not converge for mass flow rate
   **   ~~~   ** Check values should be zero. Most Recent values listed first.
   **   ~~~   ** Demand-to-Supply interface mass flow rate check value iteration history trace: 0.114126,0.114126,0.114126,0.114126,0.114126,0.114126,0.114126,0.114126,0.114126,0.114126,
   **   ~~~   ** Supply-to-demand interface deck 1 mass flow rate check value iteration history trace: 0.114126,0.114126,0.114126,0.114126,0.114126,0.114126,0.114126,0.114126,0.114126,0.114126,
   **   ~~~   ** Air System Named = CENTRAL SYSTEM did not converge for energy
   **   ~~~   ** Check values should be zero. Most Recent values listed first.
   **   ~~~   ** Demand-to-Supply interface energy check value iteration history trace: 2711.257182,2711.257183,2711.257184,2711.257185,2711.257186,2711.257187,2711.257187,2711.257188,2711.257189,2711.257190,
   **   ~~~   ** Supply-to-demand interface deck 1 energy check value iteration history trace: 1523.629620,1523.629621,1523.629622,1523.629622,1523.629623,1523.629623,1523.629624,1523.629624,1523.629625,1523.629625,
   ** Warning ** SimHVAC: Maximum iterations (20) exceeded for all HVAC loops, at ANNUAL, 05/23 06:50 - 06:55
   **   ~~~   ** The solution for one or more of the Air Loop HVAC systems did not appear to converge
   **   ~~~   ** Air System Named = CENTRAL SYSTEM did not converge for mass flow rate
   **   ~~~   ** Check values should be zero. Most Recent values listed first.
   **   ~~~   ** Demand-to-Supply interface mass flow rate check value iteration history trace: 5.827198E-002,5.827198E-002,5.827198E-002,5.827198E-002,5.827198E-002,5.827198E-002,5.827198E-002,5.827198E-002,5.827198E-002,5.827198E-002,
   **   ~~~   ** Supply-to-demand interface deck 1 mass flow rate check value iteration history trace: 5.827198E-002,5.827198E-002,5.827198E-002,5.827198E-002,5.827198E-002,5.827198E-002,5.827198E-002,5.827198E-002,5.827198E-002,5.827198E-002,
   **   ~~~   ** Air System Named = CENTRAL SYSTEM did not converge for energy
   **   ~~~   ** Check values should be zero. Most Recent values listed first.
   **   ~~~   ** Demand-to-Supply interface energy check value iteration history trace: 1377.504301,1377.504302,1377.504302,1377.504302,1377.504303,1377.504303,1377.504303,1377.504303,1377.504304,1377.504304,
   **   ~~~   ** Supply-to-demand interface deck 1 energy check value iteration history trace: 714.082604,714.082604,714.082604,714.082604,714.082605,714.082605,714.082605,714.082605,714.082605,714.082605,
   ** Warning ** SimHVAC: Maximum iterations (20) exceeded for all HVAC loops, at ANNUAL, 10/24 19:00 - 19:15
   **   ~~~   ** The solution for one or more of the Air Loop HVAC systems did not appear to converge
   **   ~~~   ** Air System Named = CENTRAL SYSTEM did not converge for mass flow rate
   **   ~~~   ** Check values should be zero. Most Recent values listed first.
   **   ~~~   ** Demand-to-Supply interface mass flow rate check value iteration history trace: 7.458893E-002,7.458893E-002,7.458893E-002,7.458893E-002,7.458893E-002,7.458893E-002,7.458893E-002,7.458893E-002,7.458893E-002,7.458893E-002,
   **   ~~~   ** Supply-to-demand interface deck 1 mass flow rate check value iteration history trace: 7.458893E-002,7.458893E-002,7.458893E-002,7.458893E-002,7.458893E-002,7.458893E-002,7.458893E-002,7.458893E-002,7.458893E-002,7.458893E-002,
   **   ~~~   ** Air System Named = CENTRAL SYSTEM did not converge for energy
   **   ~~~   ** Check values should be zero. Most Recent values listed first.
   **   ~~~   ** Demand-to-Supply interface energy check value iteration history trace: 1798.581127,1798.581127,1798.581127,1798.581127,1798.581128,1798.581128,1798.581128,1798.581128,1798.581128,1798.581128,
   **   ~~~   ** Supply-to-demand interface deck 1 energy check value iteration history trace: 1098.059151,1098.059151,1098.059151,1098.059151,1098.059151,1098.059151,1098.059151,1098.059151,1098.059151,1098.059151,
   ** Warning ** SimHVAC: Maximum iterations (20) exceeded for all HVAC loops, at ANNUAL, 10/24 20:20 - 20:25
   **   ~~~   ** The solution for one or more of the Air Loop HVAC systems did not appear to converge
   **   ~~~   ** Air System Named = CENTRAL SYSTEM did not converge for mass flow rate
   **   ~~~   ** Check values should be zero. Most Recent values listed first.
   **   ~~~   ** Demand-to-Supply interface mass flow rate check value iteration history trace: 0.280959,0.280959,0.280959,0.280959,0.280959,0.280959,0.280959,0.280959,0.280959,0.280959,
   **   ~~~   ** Supply-to-demand interface deck 1 mass flow rate check value iteration history trace: 0.280959,0.280959,0.280959,0.280959,0.280959,0.280959,0.280959,0.280959,0.280959,0.280959,
   **   ~~~   ** Air System Named = CENTRAL SYSTEM did not converge for energy
   **   ~~~   ** Check values should be zero. Most Recent values listed first.
   **   ~~~   ** Demand-to-Supply interface energy check value iteration history trace: 6680.458345,6680.458346,6680.458347,6680.458349,6680.458350,6680.458351,6680.458352,6680.458353,6680.458354,6680.458356,
   **   ~~~   ** Supply-to-demand interface deck 1 energy check value iteration history trace: 3963.201609,3963.201610,3963.201610,3963.201611,3963.201612,3963.201612,3963.201613,3963.201614,3963.201615,3963.201615,
   ************* Simulation Error Summary *************
   ** Warning ** The following Report Variables were requested but not generated -- check.rdd file
   **   ~~~   ** Either the IDF did not contain these elements, the variable name is misspelled,
   **   ~~~   ** or the requested variable is an advanced output which requires Output : Diagnostics, DisplayAdvancedReportVariables;
   ************* Key=*, VarName=BASEBOARD TOTAL HEATING ENERGY, Frequency=
   ************* Key=*, VarName=WATER HEATER NATURALGAS ENERGY, Frequency=
   ************* Key=*, VarName=COOLING COIL TOTAL HEATING ENERGY, Frequency=
   ************* There are 34 unused schedules in input.
   ************* There are 388 unused week schedules in input.
   ************* There are 396 unused day schedules in input.
   ************* Use Output:Diagnostics,DisplayUnusedSchedules; to see them.
   *************
   ************* ===== Recurring Error Summary =====
   ************* The following recurring error messages occurred.
   *************
   *************  ** Warning ** "TOTAL HOT WATER LOAD" - Target water temperature should be less than or equal to the hot water temperature error continues...
   *************  **   ~~~   **   This error occurred 102555 total times;
   *************  **   ~~~   **   during Warmup 0 times;
   *************  **   ~~~   **   during Sizing 0 times.
   *************  **   ~~~   **   Max=9.892948  Min=2.676045E-004
   *************
   *************  ** Warning ** WetBulb not converged after max iterations(PsyTwbFnTdbWPb)
   *************  **   ~~~   **   This error occurred 1 total times;
   *************  **   ~~~   **   during Warmup 0 times;
   *************  **   ~~~   **   during Sizing 0 times.
   *************
   *************  ** Warning ** SimHVAC: Exceeding Maximum iterations for all HVAC loops, during ANNUAL continues
   *************  **   ~~~   **   This error occurred 6 total times;
   *************  **   ~~~   **   during Warmup 0 times;
   *************  **   ~~~   **   during Sizing 0 times.
   *************
   *************
   ************* ===== Final Error Summary =====
   ************* The following error categories occurred.  Consider correcting or noting.
   ************* Nominally Unused Constructions
   ************* ..The nominally unused constructions warning is provided to alert you to potential conditions that can cause
   ************* ..extra time during simulation. Each construction is calculated by the algorithm indicated in the HeatBalanceAlgorithm
   ************* ..object. You may remove the constructions indicated (when you use the DisplayExtraWarnings option).
   *************
   ************* EnergyPlus Warmup Error Summary. During Warmup: 1 Warning; 0 Severe Errors.
   ************* EnergyPlus Sizing Error Summary. During Sizing: 4 Warning; 0 Severe Errors.
   ************* EnergyPlus Completed Successfully-- 102594 Warning; 0 Severe Errors; Elapsed Time=00hr 05min 34.39sec
