Program Version,EnergyPlus, Version 22.2.0-c249759bad, YMD=2023.09.01 15:27,
   ************* Beginning Zone Sizing Calculations
   ** Warning ** ProcessScheduleInput: Schedule:Constant="ALWAYS ON DISCRETE", Schedule Type Limits Name="ONOFF" not found -- will not be validated
   ** Warning ** Foundation:Kiva="KIVA FOUNDATION", no Interior Horizontal Insulation Material Name defined
   **   ~~~   ** Interior Horizontal Insulation Depth will not be used.
   ** Warning ** CheckUsedConstructions: There are 15 nominally unused constructions in input.
   **   ~~~   ** Each Unused construction is shown.
   ************* Construction=INTERIOR FLOOR
   ************* Construction=INTERIOR WINDOW
   ************* Construction=EXTERIOR DOOR
   ************* Construction=INTERIOR DOOR
   ************* Construction=GABLE CONSTRUCTION
   ************* Construction=CRAWL_FLOOR
   ************* Construction=INSULATED PIPE
   ************* Construction=PLAIN PIPE
   ************* Construction=TDD PIPE
   ************* Construction=TDD DOME
   ************* Construction=TDD DIFFUSER
   ************* Construction=CRAWL WALL
   ************* Construction=CEILING-FLOOR-LAYER
   ************* Construction=SLAB CONSTRUCTION W FULL R10 INSULATION
   ************* Construction=SLAB CONSTRUCTION W FULL R5 INSULATION
   ** Warning ** GetDXCoils: Coil:Heating:DX:SingleSpeed="DX_HEATING_COIL" curve values
   **   ~~~   ** ... Defrost Energy Input Ratio Function of Temperature Curve Name = DEFROSTEIR output is not equal to 1.0 (+ or - 10%) at rated conditions.
   **   ~~~   ** ... Curve output at rated conditions = 0.152
   ************* Beginning System Sizing Calculations
   ************* Beginning Plant Sizing Calculations
   ** Warning ** SizeDXCoil Coil:Cooling:DX:SingleSpeed DX_COOLING_COIL
   **   ~~~   ** ...Gross Rated Total Cooling Capacity [W] will be limited by the maximum rated volume flow per rated total capacity ratio.
   **   ~~~   ** ...DX coil volume flow rate ( m3/s ) = 0.446478
   **   ~~~   ** ...Requested capacity ( W ) = 6410.863
   **   ~~~   ** ...Requested flow/capacity ratio ( m3/s/W ) = 6.964E-005
   **   ~~~   ** ...Maximum flow/capacity ratio ( m3/s/W ) = 6.041E-005
   **   ~~~   ** ...Adjusted capacity ( W ) = 7390.804
   ** Warning ** Coil:WaterHeating:AirToWaterHeatPump:Wrapped "HEAT PUMP WATER HEATER EVAPORATOR": Rated air volume flow rate per watt of rated total water heating capacity is out of range
   **   ~~~   ** Min Rated Vol Flow Per Watt=[4.027E-005], Rated Vol Flow Per Watt=[1.386E-004], Max Rated Vol Flow Per Watt=[8.056E-005]. See Input-Output Reference Manual for valid range.
   ** Warning ** Water heater = WATER HEATER TANK:  Recovery Efficiency and Energy Factor could not be calculated during the test for standard ratings
   **   ~~~   ** Setpoint was never recovered and/or heater never turned on
   ** Warning ** Check input. Pump nominal power or motor efficiency is set to 0, for pump=MAINS PRESSURE
   ** Warning ** Output:Meter: invalid Key Name="ELECTRIC_RANGE:INTERIOREQUIPMENT:ELECTRICITY" - not found.
   ** Warning ** Output:Meter: invalid Key Name="ELECTRIC_DRYER:INTERIOREQUIPMENT:ELECTRICITY" - not found.
   ** Warning ** Output:Meter: invalid Key Name="HEATRECOVERY:ELECTRICITY" - not found.
   ** Warning ** Output:Meter: invalid Key Name="HEATING:NATURALGAS" - not found.
   ** Warning ** Output:Meter: invalid Key Name="WATERSYSTEMS:NATURALGAS" - not found.
   ** Warning ** Output:Meter: invalid Key Name="PROPANE:FACILITY" - not found.
   ** Warning ** Output:Meter: invalid Key Name="HEATING:PROPANE" - not found.
   ************* Testing Individual Branch Integrity
   ************* All Branches passed integrity testing
   ************* Testing Individual Supply Air Path Integrity
   ************* All Supply Air Paths passed integrity testing
   ************* Testing Individual Return Air Path Integrity
   ************* All Return Air Paths passed integrity testing
   ************* No node connection errors were found.
   ************* Beginning Simulation
   ** Warning ** AirflowNetwork::Solver::validate_distribution: Heat pump water heater is simulated along with an AirflowNetwork but is not included in the AirflowNetwork.
   ** Warning ** CalcEquipmentFlowRates: "TOTAL HOT WATER LOAD" - Target water temperature is greater than the hot water temperature by (1.72 C)
   **   ~~~   **  Environment=EXTREME_WINTER, at Simulation time=01/01 06:00 - 06:15
   **   ~~~   ** ...target water temperature     = 53.33 C
   **   ~~~   ** ...hot water temperature        = 51.61 C
   **   ~~~   ** ...Target water temperature should be less than or equal to the hot water temperature. Verify temperature setpoints and schedules.
   ** Warning ** SimHVAC: Maximum iterations (20) exceeded for all HVAC loops, at ANNUAL, 03/01 20:30 - 20:38
   **   ~~~   ** The solution for one or more of the Air Loop HVAC systems did not appear to converge
   **   ~~~   ** Air System Named = CENTRAL SYSTEM did not converge for mass flow rate
   **   ~~~   ** Check values should be zero. Most Recent values listed first.
   **   ~~~   ** Demand-to-Supply interface mass flow rate check value iteration history trace: 7.303397E-002,7.303397E-002,7.303397E-002,7.303397E-002,7.303397E-002,7.303397E-002,7.303397E-002,7.303397E-002,7.303397E-002,7.303397E-002,
   **   ~~~   ** Supply-to-demand interface deck 1 mass flow rate check value iteration history trace: 7.303397E-002,7.303397E-002,7.303397E-002,7.303397E-002,7.303397E-002,7.303397E-002,7.303397E-002,7.303397E-002,7.303397E-002,7.303397E-002,
   **   ~~~   ** Air System Named = CENTRAL SYSTEM did not converge for energy
   **   ~~~   ** Check values should be zero. Most Recent values listed first.
   **   ~~~   ** Demand-to-Supply interface energy check value iteration history trace: 1446.283528,1446.283528,1446.283528,1446.283528,1446.283528,1446.283528,1446.283528,1446.283528,1446.283528,1446.283528,
   **   ~~~   ** Supply-to-demand interface deck 1 energy check value iteration history trace: 2561.786377,2561.786377,2561.786377,2561.786377,2561.786377,2561.786377,2561.786377,2561.786377,2561.786377,2561.786377,
   ** Warning ** SimHVAC: Maximum iterations (20) exceeded for all HVAC loops, at ANNUAL, 03/02 16:40 - 16:45
   **   ~~~   ** The solution for one or more of the Air Loop HVAC systems did not appear to converge
   **   ~~~   ** Air System Named = CENTRAL SYSTEM did not converge for mass flow rate
   **   ~~~   ** Check values should be zero. Most Recent values listed first.
   **   ~~~   ** Demand-to-Supply interface mass flow rate check value iteration history trace: 7.036836E-002,7.036836E-002,7.036836E-002,7.036836E-002,7.036836E-002,7.036836E-002,7.036836E-002,7.036836E-002,7.036836E-002,7.036836E-002,
   **   ~~~   ** Supply-to-demand interface deck 1 mass flow rate check value iteration history trace: 7.036836E-002,7.036836E-002,7.036836E-002,7.036836E-002,7.036836E-002,7.036836E-002,7.036836E-002,7.036836E-002,7.036836E-002,7.036836E-002,
   **   ~~~   ** Air System Named = CENTRAL SYSTEM did not converge for energy
   **   ~~~   ** Check values should be zero. Most Recent values listed first.
   **   ~~~   ** Demand-to-Supply interface energy check value iteration history trace: 1400.903853,1400.903853,1400.903853,1400.903853,1400.903853,1400.903853,1400.903853,1400.903852,1400.903852,1400.903852,
   **   ~~~   ** Supply-to-demand interface deck 1 energy check value iteration history trace: 2542.339879,2542.339879,2542.339879,2542.339879,2542.339879,2542.339879,2542.339879,2542.339879,2542.339878,2542.339878,
   ** Warning ** SimHVAC: Maximum iterations (20) exceeded for all HVAC loops, at ANNUAL, 03/02 19:15 - 19:30
   **   ~~~   ** The solution for one or more of the Air Loop HVAC systems did not appear to converge
   **   ~~~   ** Air System Named = CENTRAL SYSTEM did not converge for mass flow rate
   **   ~~~   ** Check values should be zero. Most Recent values listed first.
   **   ~~~   ** Demand-to-Supply interface mass flow rate check value iteration history trace: 7.408929E-002,7.408929E-002,7.408929E-002,7.408929E-002,7.408929E-002,7.408929E-002,7.408929E-002,7.408929E-002,7.408929E-002,7.408929E-002,
   **   ~~~   ** Supply-to-demand interface deck 1 mass flow rate check value iteration history trace: 7.408929E-002,7.408929E-002,7.408929E-002,7.408929E-002,7.408929E-002,7.408929E-002,7.408929E-002,7.408929E-002,7.408929E-002,7.408929E-002,
   **   ~~~   ** Air System Named = CENTRAL SYSTEM did not converge for energy
   **   ~~~   ** Check values should be zero. Most Recent values listed first.
   **   ~~~   ** Demand-to-Supply interface energy check value iteration history trace: 1464.700224,1464.700224,1464.700223,1464.700223,1464.700223,1464.700223,1464.700223,1464.700223,1464.700223,1464.700223,
   **   ~~~   ** Supply-to-demand interface deck 1 energy check value iteration history trace: 2620.106236,2620.106236,2620.106235,2620.106235,2620.106235,2620.106235,2620.106235,2620.106235,2620.106235,2620.106235,
   ** Warning ** SimHVAC: Maximum iterations (20) exceeded for all HVAC loops, at ANNUAL, 03/04 10:03 - 10:06
   **   ~~~   ** The solution for one or more of the Air Loop HVAC systems did not appear to converge
   **   ~~~   ** Air System Named = CENTRAL SYSTEM did not converge for mass flow rate
   **   ~~~   ** Check values should be zero. Most Recent values listed first.
   **   ~~~   ** Demand-to-Supply interface mass flow rate check value iteration history trace: 9.763442E-002,9.763442E-002,9.763442E-002,9.763442E-002,9.763442E-002,9.763442E-002,9.763442E-002,9.763442E-002,9.763442E-002,9.763442E-002,
   **   ~~~   ** Supply-to-demand interface deck 1 mass flow rate check value iteration history trace: 9.763442E-002,9.763442E-002,9.763442E-002,9.763442E-002,9.763442E-002,9.763442E-002,9.763442E-002,9.763442E-002,9.763442E-002,9.763442E-002,
   **   ~~~   ** Air System Named = CENTRAL SYSTEM did not converge for energy
   **   ~~~   ** Check values should be zero. Most Recent values listed first.
   **   ~~~   ** Demand-to-Supply interface energy check value iteration history trace: 1934.852771,1934.852771,1934.852770,1934.852770,1934.852770,1934.852770,1934.852770,1934.852770,1934.852770,1934.852770,
   **   ~~~   ** Supply-to-demand interface deck 1 energy check value iteration history trace: 3076.505597,3076.505597,3076.505597,3076.505597,3076.505597,3076.505596,3076.505596,3076.505596,3076.505596,3076.505596,
   ** Warning ** SimHVAC: Maximum iterations (20) exceeded for all HVAC loops, at ANNUAL, 03/19 11:30 - 11:45
   **   ~~~   ** The solution for one or more of the Air Loop HVAC systems did not appear to converge
   **   ~~~   ** Air System Named = CENTRAL SYSTEM did not converge for mass flow rate
   **   ~~~   ** Check values should be zero. Most Recent values listed first.
   **   ~~~   ** Demand-to-Supply interface mass flow rate check value iteration history trace: 7.348360E-002,7.348360E-002,7.348360E-002,7.348360E-002,7.348360E-002,7.348360E-002,7.348360E-002,7.348360E-002,7.348360E-002,7.348360E-002,
   **   ~~~   ** Supply-to-demand interface deck 1 mass flow rate check value iteration history trace: 7.348360E-002,7.348360E-002,7.348360E-002,7.348360E-002,7.348360E-002,7.348360E-002,7.348360E-002,7.348360E-002,7.348360E-002,7.348360E-002,
   **   ~~~   ** Air System Named = CENTRAL SYSTEM did not converge for energy
   **   ~~~   ** Check values should be zero. Most Recent values listed first.
   **   ~~~   ** Demand-to-Supply interface energy check value iteration history trace: 1456.204232,1456.204232,1456.204232,1456.204232,1456.204232,1456.204232,1456.204232,1456.204232,1456.204232,1456.204232,
   **   ~~~   ** Supply-to-demand interface deck 1 energy check value iteration history trace: 2509.357192,2509.357192,2509.357192,2509.357192,2509.357192,2509.357192,2509.357191,2509.357191,2509.357191,2509.357191,
   ** Warning ** SimHVAC: Maximum iterations (20) exceeded for all HVAC loops, at ANNUAL, 03/22 19:30 - 19:45
   **   ~~~   ** The solution for one or more of the Air Loop HVAC systems did not appear to converge
   **   ~~~   ** Air System Named = CENTRAL SYSTEM did not converge for mass flow rate
   **   ~~~   ** Check values should be zero. Most Recent values listed first.
   **   ~~~   ** Demand-to-Supply interface mass flow rate check value iteration history trace: 0.105256,0.105256,0.105256,0.105256,0.105256,0.105256,0.105256,0.105256,0.105256,0.105256,
   **   ~~~   ** Supply-to-demand interface deck 1 mass flow rate check value iteration history trace: 0.105256,0.105256,0.105256,0.105256,0.105256,0.105256,0.105256,0.105256,0.105256,0.105256,
   **   ~~~   ** Air System Named = CENTRAL SYSTEM did not converge for energy
   **   ~~~   ** Check values should be zero. Most Recent values listed first.
   **   ~~~   ** Demand-to-Supply interface energy check value iteration history trace: 2094.396565,2094.396565,2094.396564,2094.396564,2094.396564,2094.396564,2094.396564,2094.396564,2094.396564,2094.396563,
   **   ~~~   ** Supply-to-demand interface deck 1 energy check value iteration history trace: 3265.549748,3265.549748,3265.549748,3265.549747,3265.549747,3265.549747,3265.549747,3265.549747,3265.549746,3265.549746,
   ** Warning ** SimHVAC: Maximum iterations (20) exceeded for all HVAC loops, at ANNUAL, 03/23 18:39 - 18:42
   **   ~~~   ** The solution for one or more of the Air Loop HVAC systems did not appear to converge
   **   ~~~   ** Air System Named = CENTRAL SYSTEM did not converge for mass flow rate
   **   ~~~   ** Check values should be zero. Most Recent values listed first.
   **   ~~~   ** Demand-to-Supply interface mass flow rate check value iteration history trace: 0.109058,0.109058,0.109058,0.109058,0.109058,0.109058,0.109058,0.109058,0.109058,0.109058,
   **   ~~~   ** Supply-to-demand interface deck 1 mass flow rate check value iteration history trace: 0.109058,0.109058,0.109058,0.109058,0.109058,0.109058,0.109058,0.109058,0.109058,0.109058,
   **   ~~~   ** Air System Named = CENTRAL SYSTEM did not converge for energy
   **   ~~~   ** Check values should be zero. Most Recent values listed first.
   **   ~~~   ** Demand-to-Supply interface energy check value iteration history trace: 2161.891481,2161.891481,2161.891480,2161.891480,2161.891480,2161.891480,2161.891480,2161.891480,2161.891480,2161.891480,
   **   ~~~   ** Supply-to-demand interface deck 1 energy check value iteration history trace: 3378.472308,3378.472308,3378.472308,3378.472308,3378.472307,3378.472307,3378.472307,3378.472307,3378.472306,3378.472306,
   ** Warning ** SimHVAC: Maximum iterations (20) exceeded for all HVAC loops, at ANNUAL, 04/08 10:15 - 10:22
   **   ~~~   ** The solution for one or more of the Air Loop HVAC systems did not appear to converge
   **   ~~~   ** Air System Named = CENTRAL SYSTEM did not converge for mass flow rate
   **   ~~~   ** Check values should be zero. Most Recent values listed first.
   **   ~~~   ** Demand-to-Supply interface mass flow rate check value iteration history trace: 6.656332E-002,6.656332E-002,6.656332E-002,6.656332E-002,6.656332E-002,6.656332E-002,6.656332E-002,6.656332E-002,6.656332E-002,6.656332E-002,
   **   ~~~   ** Supply-to-demand interface deck 1 mass flow rate check value iteration history trace: 6.656332E-002,6.656332E-002,6.656332E-002,6.656332E-002,6.656332E-002,6.656332E-002,6.656332E-002,6.656332E-002,6.656332E-002,6.656332E-002,
   **   ~~~   ** Air System Named = CENTRAL SYSTEM did not converge for energy
   **   ~~~   ** Check values should be zero. Most Recent values listed first.
   **   ~~~   ** Demand-to-Supply interface energy check value iteration history trace: 1313.954030,1313.954030,1313.954030,1313.954030,1313.954030,1313.954030,1313.954030,1313.954030,1313.954030,1313.954030,
   **   ~~~   ** Supply-to-demand interface deck 1 energy check value iteration history trace: 2400.167378,2400.167378,2400.167378,2400.167378,2400.167378,2400.167378,2400.167378,2400.167378,2400.167378,2400.167377,
   ** Warning ** SimHVAC: Maximum iterations (20) exceeded for all HVAC loops, at ANNUAL, 04/20 08:02 - 08:05
   **   ~~~   ** The solution for one or more of the Air Loop HVAC systems did not appear to converge
   **   ~~~   ** Air System Named = CENTRAL SYSTEM did not converge for mass flow rate
   **   ~~~   ** Check values should be zero. Most Recent values listed first.
   **   ~~~   ** Demand-to-Supply interface mass flow rate check value iteration history trace: 7.440697E-002,7.440697E-002,7.440697E-002,7.440697E-002,7.440697E-002,7.440697E-002,7.440697E-002,7.440697E-002,7.440697E-002,7.440697E-002,
   **   ~~~   ** Supply-to-demand interface deck 1 mass flow rate check value iteration history trace: 7.440697E-002,7.440697E-002,7.440697E-002,7.440697E-002,7.440697E-002,7.440697E-002,7.440697E-002,7.440697E-002,7.440697E-002,7.440697E-002,
   **   ~~~   ** Air System Named = CENTRAL SYSTEM did not converge for energy
   **   ~~~   ** Check values should be zero. Most Recent values listed first.
   **   ~~~   ** Demand-to-Supply interface energy check value iteration history trace: 1474.570705,1474.570705,1474.570705,1474.570705,1474.570705,1474.570705,1474.570705,1474.570705,1474.570704,1474.570704,
   **   ~~~   ** Supply-to-demand interface deck 1 energy check value iteration history trace: 2525.380614,2525.380613,2525.380613,2525.380613,2525.380613,2525.380613,2525.380613,2525.380613,2525.380613,2525.380612,
   ** Warning ** SimHVAC: Maximum iterations (20) exceeded for all HVAC loops, at ANNUAL, 05/10 07:20 - 07:22
   **   ~~~   ** The solution for one or more of the Air Loop HVAC systems did not appear to converge
   **   ~~~   ** Air System Named = CENTRAL SYSTEM did not converge for mass flow rate
   **   ~~~   ** Check values should be zero. Most Recent values listed first.
   **   ~~~   ** Demand-to-Supply interface mass flow rate check value iteration history trace: 0.112227,0.112227,0.112227,0.112227,0.112227,0.112227,0.112227,0.112227,0.112227,0.112227,
   **   ~~~   ** Supply-to-demand interface deck 1 mass flow rate check value iteration history trace: 0.112227,0.112227,0.112227,0.112227,0.112227,0.112227,0.112227,0.112227,0.112227,0.112227,
   **   ~~~   ** Air System Named = CENTRAL SYSTEM did not converge for energy
   **   ~~~   ** Check values should be zero. Most Recent values listed first.
   **   ~~~   ** Demand-to-Supply interface energy check value iteration history trace: 2223.972878,2223.972878,2223.972878,2223.972878,2223.972877,2223.972877,2223.972877,2223.972877,2223.972877,2223.972877,
   **   ~~~   ** Supply-to-demand interface deck 1 energy check value iteration history trace: 3444.274685,3444.274685,3444.274685,3444.274685,3444.274684,3444.274684,3444.274684,3444.274684,3444.274684,3444.274683,
   ** Warning ** SimHVAC: Maximum iterations (20) exceeded for all HVAC loops, at ANNUAL, 05/15 08:00 - 08:08
   **   ~~~   ** The solution for one or more of the Air Loop HVAC systems did not appear to converge
   **   ~~~   ** Air System Named = CENTRAL SYSTEM did not converge for mass flow rate
   **   ~~~   ** Check values should be zero. Most Recent values listed first.
   **   ~~~   ** Demand-to-Supply interface mass flow rate check value iteration history trace: 6.131286E-002,6.131286E-002,6.131286E-002,6.131286E-002,6.131286E-002,6.131286E-002,6.131286E-002,6.131286E-002,6.131286E-002,6.131286E-002,
   **   ~~~   ** Supply-to-demand interface deck 1 mass flow rate check value iteration history trace: 6.131286E-002,6.131286E-002,6.131286E-002,6.131286E-002,6.131286E-002,6.131286E-002,6.131286E-002,6.131286E-002,6.131286E-002,6.131286E-002,
   **   ~~~   ** Air System Named = CENTRAL SYSTEM did not converge for energy
   **   ~~~   ** Check values should be zero. Most Recent values listed first.
   **   ~~~   ** Demand-to-Supply interface energy check value iteration history trace: 1214.952090,1214.952090,1214.952090,1214.952090,1214.952090,1214.952090,1214.952090,1214.952090,1214.952090,1214.952090,
   **   ~~~   ** Supply-to-demand interface deck 1 energy check value iteration history trace: 2199.023127,2199.023127,2199.023127,2199.023127,2199.023127,2199.023127,2199.023126,2199.023126,2199.023126,2199.023126,
   ** Warning ** SimHVAC: Maximum iterations (20) exceeded for all HVAC loops, at ANNUAL, 06/05 08:08 - 08:11
   **   ~~~   ** The solution for one or more of the Air Loop HVAC systems did not appear to converge
   **   ~~~   ** Air System Named = CENTRAL SYSTEM did not converge for mass flow rate
   **   ~~~   ** Check values should be zero. Most Recent values listed first.
   **   ~~~   ** Demand-to-Supply interface mass flow rate check value iteration history trace: 0.285862,0.285862,0.285862,0.285862,0.285862,0.285862,0.285862,0.285862,0.285862,0.285862,
   **   ~~~   ** Supply-to-demand interface deck 1 mass flow rate check value iteration history trace: 0.285862,0.285862,0.285862,0.285862,0.285862,0.285862,0.285862,0.285862,0.285862,0.285862,
   **   ~~~   ** Air System Named = CENTRAL SYSTEM did not converge for energy
   **   ~~~   ** Check values should be zero. Most Recent values listed first.
   **   ~~~   ** Demand-to-Supply interface energy check value iteration history trace: 6851.740391,6851.740391,6851.740392,6851.740392,6851.740393,6851.740393,6851.740393,6851.740394,6851.740394,6851.740395,
   **   ~~~   ** Supply-to-demand interface deck 1 energy check value iteration history trace: 2594.707579,2594.707579,2594.707579,2594.707579,2594.707579,2594.707579,2594.707580,2594.707580,2594.707580,2594.707580,
   ** Warning ** SimHVAC: Maximum iterations (20) exceeded for all HVAC loops, at ANNUAL, 06/22 06:03 - 06:05
   **   ~~~   ** The solution for one or more of the Air Loop HVAC systems did not appear to converge
   **   ~~~   ** Air System Named = CENTRAL SYSTEM did not converge for mass flow rate
   **   ~~~   ** Check values should be zero. Most Recent values listed first.
   **   ~~~   ** Demand-to-Supply interface mass flow rate check value iteration history trace: 0.114856,0.114856,0.114856,0.114856,0.114856,0.114856,0.114856,0.114856,0.114856,0.114856,
   **   ~~~   ** Supply-to-demand interface deck 1 mass flow rate check value iteration history trace: 0.114856,0.114856,0.114856,0.114856,0.114856,0.114856,0.114856,0.114856,0.114856,0.114856,
   **   ~~~   ** Air System Named = CENTRAL SYSTEM did not converge for energy
   **   ~~~   ** Check values should be zero. Most Recent values listed first.
   **   ~~~   ** Demand-to-Supply interface energy check value iteration history trace: 2702.815201,2702.815202,2702.815202,2702.815202,2702.815202,2702.815202,2702.815203,2702.815203,2702.815203,2702.815203,
   **   ~~~   ** Supply-to-demand interface deck 1 energy check value iteration history trace: 1197.777517,1197.777517,1197.777517,1197.777517,1197.777517,1197.777517,1197.777517,1197.777518,1197.777518,1197.777518,
   ** Warning ** SimHVAC: Maximum iterations (20) exceeded for all HVAC loops, at ANNUAL, 06/22 07:57 - 08:00
   **   ~~~   ** The solution for one or more of the Air Loop HVAC systems did not appear to converge
   **   ~~~   ** Air System Named = CENTRAL SYSTEM did not converge for mass flow rate
   **   ~~~   ** Check values should be zero. Most Recent values listed first.
   **   ~~~   ** Demand-to-Supply interface mass flow rate check value iteration history trace: 0.127728,0.127728,0.127728,0.127728,0.127728,0.127728,0.127728,0.127728,0.127728,0.127728,
   **   ~~~   ** Supply-to-demand interface deck 1 mass flow rate check value iteration history trace: 0.127728,0.127728,0.127728,0.127728,0.127728,0.127728,0.127728,0.127728,0.127728,0.127728,
   **   ~~~   ** Air System Named = CENTRAL SYSTEM did not converge for energy
   **   ~~~   ** Check values should be zero. Most Recent values listed first.
   **   ~~~   ** Demand-to-Supply interface energy check value iteration history trace: 2998.381767,2998.381768,2998.381768,2998.381768,2998.381768,2998.381769,2998.381769,2998.381769,2998.381770,2998.381770,
   **   ~~~   ** Supply-to-demand interface deck 1 energy check value iteration history trace: 1333.498269,1333.498269,1333.498269,1333.498269,1333.498269,1333.498269,1333.498269,1333.498269,1333.498270,1333.498270,
   ************* Simulation Error Summary *************
   ** Warning ** The following Report Variables were requested but not generated -- check.rdd file
   **   ~~~   ** Either the IDF did not contain these elements, the variable name is misspelled,
   **   ~~~   ** or the requested variable is an advanced output which requires Output : Diagnostics, DisplayAdvancedReportVariables;
   ************* Key=*, VarName=BASEBOARD TOTAL HEATING ENERGY, Frequency=
   ************* Key=*, VarName=WATER HEATER NATURALGAS ENERGY, Frequency=
   ************* Key=*, VarName=COOLING COIL TOTAL HEATING ENERGY, Frequency=
   ************* There are 34 unused schedules in input.
   ************* There are 388 unused week schedules in input.
   ************* There are 396 unused day schedules in input.
   ************* Use Output:Diagnostics,DisplayUnusedSchedules; to see them.
   *************
   ************* ===== Recurring Error Summary =====
   ************* The following recurring error messages occurred.
   *************
   *************  ** Warning ** "TOTAL HOT WATER LOAD" - Target water temperature should be less than or equal to the hot water temperature error continues...
   *************  **   ~~~   **   This error occurred 91539 total times;
   *************  **   ~~~   **   during Warmup 0 times;
   *************  **   ~~~   **   during Sizing 0 times.
   *************  **   ~~~   **   Max=10.599199  Min=6.835210E-004
   *************
   *************  ** Warning ** SimHVAC: Exceeding Maximum iterations for all HVAC loops, during ANNUAL continues
   *************  **   ~~~   **   This error occurred 3 total times;
   *************  **   ~~~   **   during Warmup 0 times;
   *************  **   ~~~   **   during Sizing 0 times.
   *************
   *************
   ************* ===== Final Error Summary =====
   ************* The following error categories occurred.  Consider correcting or noting.
   ************* Nominally Unused Constructions
   ************* ..The nominally unused constructions warning is provided to alert you to potential conditions that can cause
   ************* ..extra time during simulation. Each construction is calculated by the algorithm indicated in the HeatBalanceAlgorithm
   ************* ..object. You may remove the constructions indicated (when you use the DisplayExtraWarnings option).
   *************
   ************* EnergyPlus Warmup Error Summary. During Warmup: 1 Warning; 0 Severe Errors.
   ************* EnergyPlus Sizing Error Summary. During Sizing: 4 Warning; 0 Severe Errors.
   ************* EnergyPlus Completed Successfully-- 91574 Warning; 0 Severe Errors; Elapsed Time=00hr 04min 55.63sec
