Program Version,EnergyPlus, Version 22.2.0-c249759bad, YMD=2023.09.01 19:12,
   ************* Beginning Zone Sizing Calculations
   ** Warning ** ProcessScheduleInput: Schedule:Constant="ALWAYS ON DISCRETE", Schedule Type Limits Name="ONOFF" not found -- will not be validated
   ** Warning ** Foundation:Kiva="KIVA FOUNDATION", no Interior Horizontal Insulation Material Name defined
   **   ~~~   ** Interior Horizontal Insulation Depth will not be used.
   ** Warning ** CheckUsedConstructions: There are 15 nominally unused constructions in input.
   **   ~~~   ** Each Unused construction is shown.
   ************* Construction=INTERIOR FLOOR
   ************* Construction=INTERIOR WINDOW
   ************* Construction=EXTERIOR DOOR
   ************* Construction=INTERIOR DOOR
   ************* Construction=GABLE CONSTRUCTION
   ************* Construction=CRAWL_FLOOR
   ************* Construction=INSULATED PIPE
   ************* Construction=PLAIN PIPE
   ************* Construction=TDD PIPE
   ************* Construction=TDD DOME
   ************* Construction=TDD DIFFUSER
   ************* Construction=CRAWL WALL
   ************* Construction=CEILING-FLOOR-LAYER
   ************* Construction=SLAB CONSTRUCTION W FULL R10 INSULATION
   ************* Construction=SLAB CONSTRUCTION W FULL R5 INSULATION
   ** Warning ** GetDXCoils: Coil:Heating:DX:SingleSpeed="DX_HEATING_COIL" curve values
   **   ~~~   ** ... Defrost Energy Input Ratio Function of Temperature Curve Name = DEFROSTEIR output is not equal to 1.0 (+ or - 10%) at rated conditions.
   **   ~~~   ** ... Curve output at rated conditions = 0.152
   ************* Beginning System Sizing Calculations
   ************* Beginning Plant Sizing Calculations
   ** Warning ** Coil:WaterHeating:AirToWaterHeatPump:Wrapped "HEAT PUMP WATER HEATER EVAPORATOR": Rated air volume flow rate per watt of rated total water heating capacity is out of range
   **   ~~~   ** Min Rated Vol Flow Per Watt=[4.027E-005], Rated Vol Flow Per Watt=[1.510E-004], Max Rated Vol Flow Per Watt=[8.056E-005]. See Input-Output Reference Manual for valid range.
   ************* SizeFan: : Potential issue with equipment sizing for Fan:OnOff HEAT PUMP WATER HEATER FAN
   **   ~~~   ** User-Specified Maximum Flow Rate [m3/s] = 0.22653
   **   ~~~   ** differs from Design Size Maximum Flow Rate [m3/s] = 7.55250E-002
   **   ~~~   ** This may, or may not, indicate mismatched component sizes.
   **   ~~~   ** Verify that the value entered is intended and is consistent with other components.
   ** Warning ** Water heater = WATER HEATER TANK:  Recovery Efficiency and Energy Factor could not be calculated during the test for standard ratings
   **   ~~~   ** Setpoint was never recovered and/or heater never turned on
   ** Warning ** Check input. Pump nominal power or motor efficiency is set to 0, for pump=MAINS PRESSURE
   ** Warning ** Output:Meter: invalid Key Name="ELECTRIC_RANGE:INTERIOREQUIPMENT:ELECTRICITY" - not found.
   ** Warning ** Output:Meter: invalid Key Name="ELECTRIC_DRYER:INTERIOREQUIPMENT:ELECTRICITY" - not found.
   ** Warning ** Output:Meter: invalid Key Name="HEATRECOVERY:ELECTRICITY" - not found.
   ** Warning ** Output:Meter: invalid Key Name="HEATING:NATURALGAS" - not found.
   ** Warning ** Output:Meter: invalid Key Name="WATERSYSTEMS:NATURALGAS" - not found.
   ** Warning ** Output:Meter: invalid Key Name="PROPANE:FACILITY" - not found.
   ** Warning ** Output:Meter: invalid Key Name="HEATING:PROPANE" - not found.
   ************* Testing Individual Branch Integrity
   ************* All Branches passed integrity testing
   ************* Testing Individual Supply Air Path Integrity
   ************* All Supply Air Paths passed integrity testing
   ************* Testing Individual Return Air Path Integrity
   ************* All Return Air Paths passed integrity testing
   ************* No node connection errors were found.
   ************* Beginning Simulation
   ** Warning ** AirflowNetwork::Solver::validate_distribution: Heat pump water heater is simulated along with an AirflowNetwork but is not included in the AirflowNetwork.
   ** Warning ** CalcEquipmentFlowRates: "TOTAL HOT WATER LOAD" - Target water temperature is greater than the hot water temperature by (0.82 C)
   **   ~~~   **  Environment=EXTREME_WINTER, at Simulation time=02/03 06:45 - 07:00
   **   ~~~   ** ...target water temperature     = 53.33 C
   **   ~~~   ** ...hot water temperature        = 52.51 C
   **   ~~~   ** ...Target water temperature should be less than or equal to the hot water temperature. Verify temperature setpoints and schedules.
   ** Warning ** SimHVAC: Maximum iterations (20) exceeded for all HVAC loops, at EXTREME_SUMMER, 06/24 03:08 - 03:15
   **   ~~~   ** The solution for one or more of the Air Loop HVAC systems did not appear to converge
   **   ~~~   ** Air System Named = CENTRAL SYSTEM did not converge for mass flow rate
   **   ~~~   ** Check values should be zero. Most Recent values listed first.
   **   ~~~   ** Demand-to-Supply interface mass flow rate check value iteration history trace: 0.165463,0.165463,0.165463,0.165463,0.165463,0.165463,0.165463,0.165463,0.165463,0.165463,
   **   ~~~   ** Supply-to-demand interface deck 1 mass flow rate check value iteration history trace: 0.165463,0.165463,0.165463,0.165463,0.165463,0.165463,0.165463,0.165463,0.165463,0.165463,
   **   ~~~   ** Air System Named = CENTRAL SYSTEM did not converge for energy
   **   ~~~   ** Check values should be zero. Most Recent values listed first.
   **   ~~~   ** Demand-to-Supply interface energy check value iteration history trace: 4108.402442,4108.402444,4108.402446,4108.402448,4108.402450,4108.402453,4108.402455,4108.402457,4108.402459,4108.402461,
   **   ~~~   ** Supply-to-demand interface deck 1 energy check value iteration history trace: 2354.447250,2354.447251,2354.447252,2354.447254,2354.447255,2354.447256,2354.447257,2354.447258,2354.447260,2354.447261,
   ** Warning ** SimHVAC: Maximum iterations (20) exceeded for all HVAC loops, at ANNUAL, 01/07 10:15 - 10:20
   **   ~~~   ** The solution for one or more of the Air Loop HVAC systems did not appear to converge
   **   ~~~   ** Air System Named = CENTRAL SYSTEM did not converge for mass flow rate
   **   ~~~   ** Check values should be zero. Most Recent values listed first.
   **   ~~~   ** Demand-to-Supply interface mass flow rate check value iteration history trace: 8.862726E-002,8.862726E-002,8.862726E-002,8.862726E-002,8.862726E-002,8.862726E-002,8.862726E-002,8.862726E-002,8.862726E-002,8.862726E-002,
   **   ~~~   ** Supply-to-demand interface deck 1 mass flow rate check value iteration history trace: 8.862726E-002,8.862726E-002,8.862726E-002,8.862726E-002,8.862726E-002,8.862726E-002,8.862726E-002,8.862726E-002,8.862726E-002,8.862726E-002,
   **   ~~~   ** Air System Named = CENTRAL SYSTEM did not converge for energy
   **   ~~~   ** Check values should be zero. Most Recent values listed first.
   **   ~~~   ** Demand-to-Supply interface energy check value iteration history trace: 1756.192200,1756.192200,1756.192200,1756.192200,1756.192200,1756.192200,1756.192200,1756.192200,1756.192199,1756.192199,
   **   ~~~   ** Supply-to-demand interface deck 1 energy check value iteration history trace: 2762.763876,2762.763876,2762.763875,2762.763875,2762.763875,2762.763875,2762.763875,2762.763875,2762.763875,2762.763874,
   ** Warning ** SimHVAC: Maximum iterations (20) exceeded for all HVAC loops, at ANNUAL, 01/11 09:25 - 09:27
   **   ~~~   ** The solution for one or more of the Air Loop HVAC systems did not appear to converge
   **   ~~~   ** Air System Named = CENTRAL SYSTEM did not converge for mass flow rate
   **   ~~~   ** Check values should be zero. Most Recent values listed first.
   **   ~~~   ** Demand-to-Supply interface mass flow rate check value iteration history trace: 7.642653E-002,7.642653E-002,7.642653E-002,7.642653E-002,7.642653E-002,7.642653E-002,7.642653E-002,7.642653E-002,7.642653E-002,7.642653E-002,
   **   ~~~   ** Supply-to-demand interface deck 1 mass flow rate check value iteration history trace: 7.642653E-002,7.642653E-002,7.642653E-002,7.642653E-002,7.642653E-002,7.642653E-002,7.642653E-002,7.642653E-002,7.642653E-002,7.642653E-002,
   **   ~~~   ** Air System Named = CENTRAL SYSTEM did not converge for energy
   **   ~~~   ** Check values should be zero. Most Recent values listed first.
   **   ~~~   ** Demand-to-Supply interface energy check value iteration history trace: 1510.718770,1510.718770,1510.718770,1510.718769,1510.718769,1510.718769,1510.718769,1510.718769,1510.718769,1510.718769,
   **   ~~~   ** Supply-to-demand interface deck 1 energy check value iteration history trace: 2567.401686,2567.401686,2567.401686,2567.401686,2567.401686,2567.401685,2567.401685,2567.401685,2567.401685,2567.401685,
   ** Warning ** SimHVAC: Maximum iterations (20) exceeded for all HVAC loops, at ANNUAL, 02/27 08:40 - 08:45
   **   ~~~   ** The solution for one or more of the Air Loop HVAC systems did not appear to converge
   **   ~~~   ** Air System Named = CENTRAL SYSTEM did not converge for mass flow rate
   **   ~~~   ** Check values should be zero. Most Recent values listed first.
   **   ~~~   ** Demand-to-Supply interface mass flow rate check value iteration history trace: 4.916909E-002,4.916909E-002,4.916909E-002,4.916909E-002,4.916909E-002,4.916909E-002,4.916909E-002,4.916909E-002,4.916909E-002,4.916909E-002,
   **   ~~~   ** Supply-to-demand interface deck 1 mass flow rate check value iteration history trace: 4.916909E-002,4.916909E-002,4.916909E-002,4.916909E-002,4.916909E-002,4.916909E-002,4.916909E-002,4.916909E-002,4.916909E-002,4.916909E-002,
   **   ~~~   ** Air System Named = CENTRAL SYSTEM did not converge for energy
   **   ~~~   ** Check values should be zero. Most Recent values listed first.
   **   ~~~   ** Demand-to-Supply interface energy check value iteration history trace: 1155.109649,1155.109649,1155.109649,1155.109649,1155.109649,1155.109649,1155.109649,1155.109649,1155.109649,1155.109649,
   **   ~~~   ** Supply-to-demand interface deck 1 energy check value iteration history trace: 664.275731,664.275731,664.275732,664.275732,664.275732,664.275732,664.275732,664.275732,664.275732,664.275732,
   ** Warning ** SimHVAC: Maximum iterations (20) exceeded for all HVAC loops, at ANNUAL, 03/01 08:21 - 08:24
   **   ~~~   ** The solution for one or more of the Air Loop HVAC systems did not appear to converge
   **   ~~~   ** Air System Named = CENTRAL SYSTEM did not converge for mass flow rate
   **   ~~~   ** Check values should be zero. Most Recent values listed first.
   **   ~~~   ** Demand-to-Supply interface mass flow rate check value iteration history trace: 2.711889E-002,2.711889E-002,2.711889E-002,2.711889E-002,2.711889E-002,2.711889E-002,2.711889E-002,2.711889E-002,2.711889E-002,2.711889E-002,
   **   ~~~   ** Supply-to-demand interface deck 1 mass flow rate check value iteration history trace: 2.711889E-002,2.711889E-002,2.711889E-002,2.711889E-002,2.711889E-002,2.711889E-002,2.711889E-002,2.711889E-002,2.711889E-002,2.711889E-002,
   **   ~~~   ** Air System Named = CENTRAL SYSTEM did not converge for energy
   **   ~~~   ** Check values should be zero. Most Recent values listed first.
   **   ~~~   ** Demand-to-Supply interface energy check value iteration history trace: 636.047043,636.047043,636.047043,636.047043,636.047043,636.047043,636.047043,636.047043,636.047043,636.047043,
   **   ~~~   ** Supply-to-demand interface deck 1 energy check value iteration history trace: 336.976829,336.976829,336.976829,336.976829,336.976829,336.976829,336.976829,336.976829,336.976829,336.976829,
   ** Warning ** SimHVAC: Maximum iterations (20) exceeded for all HVAC loops, at ANNUAL, 03/04 11:23 - 11:26
   **   ~~~   ** The solution for one or more of the Air Loop HVAC systems did not appear to converge
   **   ~~~   ** Air System Named = CENTRAL SYSTEM did not converge for mass flow rate
   **   ~~~   ** Check values should be zero. Most Recent values listed first.
   **   ~~~   ** Demand-to-Supply interface mass flow rate check value iteration history trace: 4.963177E-002,4.963177E-002,4.963177E-002,4.963177E-002,4.963177E-002,4.963177E-002,4.963177E-002,4.963177E-002,4.963177E-002,4.963177E-002,
   **   ~~~   ** Supply-to-demand interface deck 1 mass flow rate check value iteration history trace: 4.963177E-002,4.963177E-002,4.963177E-002,4.963177E-002,4.963177E-002,4.963177E-002,4.963177E-002,4.963177E-002,4.963177E-002,4.963177E-002,
   **   ~~~   ** Air System Named = CENTRAL SYSTEM did not converge for energy
   **   ~~~   ** Check values should be zero. Most Recent values listed first.
   **   ~~~   ** Demand-to-Supply interface energy check value iteration history trace: 1167.660012,1167.660012,1167.660012,1167.660012,1167.660012,1167.660012,1167.660012,1167.660012,1167.660013,1167.660013,
   **   ~~~   ** Supply-to-demand interface deck 1 energy check value iteration history trace: 472.322328,472.322329,472.322329,472.322329,472.322329,472.322329,472.322329,472.322329,472.322329,472.322329,
   ** Warning ** SimHVAC: Maximum iterations (20) exceeded for all HVAC loops, at ANNUAL, 03/08 09:15 - 09:30
   **   ~~~   ** The solution for one or more of the Air Loop HVAC systems did not appear to converge
   **   ~~~   ** Air System Named = CENTRAL SYSTEM did not converge for mass flow rate
   **   ~~~   ** Check values should be zero. Most Recent values listed first.
   **   ~~~   ** Demand-to-Supply interface mass flow rate check value iteration history trace: 0.101994,0.101994,0.101994,0.101994,0.101994,0.101994,0.101994,0.101994,0.101994,0.101994,
   **   ~~~   ** Supply-to-demand interface deck 1 mass flow rate check value iteration history trace: 0.101994,0.101994,0.101994,0.101994,0.101994,0.101994,0.101994,0.101994,0.101994,0.101994,
   **   ~~~   ** Air System Named = CENTRAL SYSTEM did not converge for energy
   **   ~~~   ** Check values should be zero. Most Recent values listed first.
   **   ~~~   ** Demand-to-Supply interface energy check value iteration history trace: 2434.318057,2434.318057,2434.318057,2434.318057,2434.318057,2434.318058,2434.318058,2434.318058,2434.318058,2434.318058,
   **   ~~~   ** Supply-to-demand interface deck 1 energy check value iteration history trace: 1275.991449,1275.991449,1275.991449,1275.991449,1275.991449,1275.991449,1275.991450,1275.991450,1275.991450,1275.991450,
   ** Warning ** SimHVAC: Maximum iterations (20) exceeded for all HVAC loops, at ANNUAL, 03/24 08:05 - 08:10
   **   ~~~   ** The solution for one or more of the Air Loop HVAC systems did not appear to converge
   **   ~~~   ** Air System Named = CENTRAL SYSTEM did not converge for mass flow rate
   **   ~~~   ** Check values should be zero. Most Recent values listed first.
   **   ~~~   ** Demand-to-Supply interface mass flow rate check value iteration history trace: 7.233714E-002,7.233714E-002,7.233714E-002,7.233714E-002,7.233714E-002,7.233714E-002,7.233714E-002,7.233714E-002,7.233714E-002,7.233714E-002,
   **   ~~~   ** Supply-to-demand interface deck 1 mass flow rate check value iteration history trace: 7.233714E-002,7.233714E-002,7.233714E-002,7.233714E-002,7.233714E-002,7.233714E-002,7.233714E-002,7.233714E-002,7.233714E-002,7.233714E-002,
   **   ~~~   ** Air System Named = CENTRAL SYSTEM did not converge for energy
   **   ~~~   ** Check values should be zero. Most Recent values listed first.
   **   ~~~   ** Demand-to-Supply interface energy check value iteration history trace: 1433.456785,1433.456785,1433.456785,1433.456785,1433.456784,1433.456784,1433.456784,1433.456784,1433.456784,1433.456783,
   **   ~~~   ** Supply-to-demand interface deck 1 energy check value iteration history trace: 2450.364928,2450.364927,2450.364927,2450.364927,2450.364926,2450.364926,2450.364925,2450.364925,2450.364924,2450.364924,
   ** Warning ** SimHVAC: Maximum iterations (20) exceeded for all HVAC loops, at ANNUAL, 03/24 09:00 - 09:04
   **   ~~~   ** The solution for one or more of the Air Loop HVAC systems did not appear to converge
   **   ~~~   ** Air System Named = CENTRAL SYSTEM did not converge for mass flow rate
   **   ~~~   ** Check values should be zero. Most Recent values listed first.
   **   ~~~   ** Demand-to-Supply interface mass flow rate check value iteration history trace: 6.315201E-002,6.315201E-002,6.315201E-002,6.315201E-002,6.315201E-002,6.315201E-002,6.315201E-002,6.315201E-002,6.315201E-002,6.315201E-002,
   **   ~~~   ** Supply-to-demand interface deck 1 mass flow rate check value iteration history trace: 6.315201E-002,6.315201E-002,6.315201E-002,6.315201E-002,6.315201E-002,6.315201E-002,6.315201E-002,6.315201E-002,6.315201E-002,6.315201E-002,
   **   ~~~   ** Air System Named = CENTRAL SYSTEM did not converge for energy
   **   ~~~   ** Check values should be zero. Most Recent values listed first.
   **   ~~~   ** Demand-to-Supply interface energy check value iteration history trace: 1249.022120,1249.022120,1249.022120,1249.022120,1249.022120,1249.022120,1249.022120,1249.022120,1249.022120,1249.022120,
   **   ~~~   ** Supply-to-demand interface deck 1 energy check value iteration history trace: 2169.348897,2169.348897,2169.348897,2169.348897,2169.348897,2169.348897,2169.348897,2169.348897,2169.348897,2169.348897,
   ** Warning ** SimHVAC: Maximum iterations (20) exceeded for all HVAC loops, at ANNUAL, 03/24 13:45 - 14:00
   **   ~~~   ** The solution for one or more of the Air Loop HVAC systems did not appear to converge
   **   ~~~   ** Air System Named = CENTRAL SYSTEM did not converge for mass flow rate
   **   ~~~   ** Check values should be zero. Most Recent values listed first.
   **   ~~~   ** Demand-to-Supply interface mass flow rate check value iteration history trace: 0.105817,0.105817,0.105817,0.105817,0.105817,0.105817,0.105817,0.105817,0.105817,0.105817,
   **   ~~~   ** Supply-to-demand interface deck 1 mass flow rate check value iteration history trace: 0.105817,0.105817,0.105817,0.105817,0.105817,0.105817,0.105817,0.105817,0.105817,0.105817,
   **   ~~~   ** Air System Named = CENTRAL SYSTEM did not converge for energy
   **   ~~~   ** Check values should be zero. Most Recent values listed first.
   **   ~~~   ** Demand-to-Supply interface energy check value iteration history trace: 2512.148035,2512.148035,2512.148035,2512.148035,2512.148035,2512.148035,2512.148036,2512.148036,2512.148036,2512.148036,
   **   ~~~   ** Supply-to-demand interface deck 1 energy check value iteration history trace: 1021.584786,1021.584786,1021.584786,1021.584786,1021.584786,1021.584786,1021.584786,1021.584786,1021.584786,1021.584786,
   ** Warning ** SimHVAC: Maximum iterations (20) exceeded for all HVAC loops, at ANNUAL, 03/25 12:45 - 13:00
   **   ~~~   ** The solution for one or more of the Air Loop HVAC systems did not appear to converge
   **   ~~~   ** Air System Named = CENTRAL SYSTEM did not converge for mass flow rate
   **   ~~~   ** Check values should be zero. Most Recent values listed first.
   **   ~~~   ** Demand-to-Supply interface mass flow rate check value iteration history trace: 8.758044E-002,8.758044E-002,8.758044E-002,8.758044E-002,8.758044E-002,8.758045E-002,8.758045E-002,8.758045E-002,8.758045E-002,8.758045E-002,
   **   ~~~   ** Supply-to-demand interface deck 1 mass flow rate check value iteration history trace: 8.758044E-002,8.758044E-002,8.758044E-002,8.758044E-002,8.758044E-002,8.758045E-002,8.758045E-002,8.758045E-002,8.758045E-002,8.758045E-002,
   **   ~~~   ** Air System Named = CENTRAL SYSTEM did not converge for energy
   **   ~~~   ** Check values should be zero. Most Recent values listed first.
   **   ~~~   ** Demand-to-Supply interface energy check value iteration history trace: 2046.896556,2046.896556,2046.896556,2046.896556,2046.896556,2046.896556,2046.896557,2046.896557,2046.896557,2046.896557,
   **   ~~~   ** Supply-to-demand interface deck 1 energy check value iteration history trace: 820.234802,820.234802,820.234802,820.234802,820.234802,820.234802,820.234802,820.234802,820.234802,820.234802,
   ** Warning ** SimHVAC: Maximum iterations (20) exceeded for all HVAC loops, at ANNUAL, 12/01 07:30 - 07:45
   **   ~~~   ** The solution for one or more of the Air Loop HVAC systems did not appear to converge
   **   ~~~   ** Air System Named = CENTRAL SYSTEM did not converge for mass flow rate
   **   ~~~   ** Check values should be zero. Most Recent values listed first.
   **   ~~~   ** Demand-to-Supply interface mass flow rate check value iteration history trace: 7.416221E-002,7.416221E-002,7.416221E-002,7.416221E-002,7.416221E-002,7.416221E-002,7.416221E-002,7.416221E-002,7.416221E-002,7.416221E-002,
   **   ~~~   ** Supply-to-demand interface deck 1 mass flow rate check value iteration history trace: 7.416221E-002,7.416221E-002,7.416221E-002,7.416221E-002,7.416221E-002,7.416221E-002,7.416221E-002,7.416221E-002,7.416221E-002,7.416221E-002,
   **   ~~~   ** Air System Named = CENTRAL SYSTEM did not converge for energy
   **   ~~~   ** Check values should be zero. Most Recent values listed first.
   **   ~~~   ** Demand-to-Supply interface energy check value iteration history trace: 1469.388271,1469.388271,1469.388271,1469.388271,1469.388271,1469.388270,1469.388270,1469.388270,1469.388270,1469.388270,
   **   ~~~   ** Supply-to-demand interface deck 1 energy check value iteration history trace: 2497.279682,2497.279682,2497.279682,2497.279682,2497.279682,2497.279682,2497.279682,2497.279681,2497.279681,2497.279681,
   ** Warning ** SimHVAC: Maximum iterations (20) exceeded for all HVAC loops, at ANNUAL, 12/20 09:24 - 09:27
   **   ~~~   ** The solution for one or more of the Air Loop HVAC systems did not appear to converge
   **   ~~~   ** Air System Named = CENTRAL SYSTEM did not converge for mass flow rate
   **   ~~~   ** Check values should be zero. Most Recent values listed first.
   **   ~~~   ** Demand-to-Supply interface mass flow rate check value iteration history trace: 0.157198,0.157198,0.157198,0.157198,0.157198,0.157198,0.157198,0.157198,0.157198,0.157198,
   **   ~~~   ** Supply-to-demand interface deck 1 mass flow rate check value iteration history trace: 0.157198,0.157198,0.157198,0.157198,0.157198,0.157198,0.157198,0.157198,0.157198,0.157198,
   **   ~~~   ** Air System Named = CENTRAL SYSTEM did not converge for energy
   **   ~~~   ** Check values should be zero. Most Recent values listed first.
   **   ~~~   ** Demand-to-Supply interface energy check value iteration history trace: 3717.234004,3717.234004,3717.234004,3717.234004,3717.234005,3717.234005,3717.234005,3717.234005,3717.234006,3717.234006,
   **   ~~~   ** Supply-to-demand interface deck 1 energy check value iteration history trace: 2110.293660,2110.293660,2110.293660,2110.293660,2110.293660,2110.293660,2110.293661,2110.293661,2110.293661,2110.293661,
   ************* Simulation Error Summary *************
   ** Warning ** The following Report Variables were requested but not generated -- check.rdd file
   **   ~~~   ** Either the IDF did not contain these elements, the variable name is misspelled,
   **   ~~~   ** or the requested variable is an advanced output which requires Output : Diagnostics, DisplayAdvancedReportVariables;
   ************* Key=*, VarName=BASEBOARD TOTAL HEATING ENERGY, Frequency=
   ************* Key=*, VarName=WATER HEATER NATURALGAS ENERGY, Frequency=
   ************* Key=*, VarName=COOLING COIL TOTAL HEATING ENERGY, Frequency=
   ************* There are 34 unused schedules in input.
   ************* There are 388 unused week schedules in input.
   ************* There are 397 unused day schedules in input.
   ************* Use Output:Diagnostics,DisplayUnusedSchedules; to see them.
   *************
   ************* ===== Recurring Error Summary =====
   ************* The following recurring error messages occurred.
   *************
   *************  ** Warning ** "TOTAL HOT WATER LOAD" - Target water temperature should be less than or equal to the hot water temperature error continues...
   *************  **   ~~~   **   This error occurred 109631 total times;
   *************  **   ~~~   **   during Warmup 0 times;
   *************  **   ~~~   **   during Sizing 0 times.
   *************  **   ~~~   **   Max=9.168434  Min=2.120588E-003
   *************
   *************
   ************* ===== Final Error Summary =====
   ************* The following error categories occurred.  Consider correcting or noting.
   ************* Nominally Unused Constructions
   ************* ..The nominally unused constructions warning is provided to alert you to potential conditions that can cause
   ************* ..extra time during simulation. Each construction is calculated by the algorithm indicated in the HeatBalanceAlgorithm
   ************* ..object. You may remove the constructions indicated (when you use the DisplayExtraWarnings option).
   *************
   ************* EnergyPlus Warmup Error Summary. During Warmup: 1 Warning; 0 Severe Errors.
   ************* EnergyPlus Sizing Error Summary. During Sizing: 4 Warning; 0 Severe Errors.
   ************* EnergyPlus Completed Successfully-- 109661 Warning; 0 Severe Errors; Elapsed Time=00hr 01min 37.58sec
