Program Version,EnergyPlus, Version 22.2.0-c249759bad, YMD=2023.09.01 15:27,
   ************* Beginning Zone Sizing Calculations
   ** Warning ** ProcessScheduleInput: Schedule:Constant="ALWAYS ON DISCRETE", Schedule Type Limits Name="ONOFF" not found -- will not be validated
   ** Warning ** Foundation:Kiva="KIVA FOUNDATION", no Interior Horizontal Insulation Material Name defined
   **   ~~~   ** Interior Horizontal Insulation Depth will not be used.
   ** Warning ** CheckUsedConstructions: There are 15 nominally unused constructions in input.
   **   ~~~   ** Each Unused construction is shown.
   ************* Construction=INTERIOR FLOOR
   ************* Construction=INTERIOR WINDOW
   ************* Construction=EXTERIOR DOOR
   ************* Construction=INTERIOR DOOR
   ************* Construction=GABLE CONSTRUCTION
   ************* Construction=CRAWL_FLOOR
   ************* Construction=INSULATED PIPE
   ************* Construction=PLAIN PIPE
   ************* Construction=TDD PIPE
   ************* Construction=TDD DOME
   ************* Construction=TDD DIFFUSER
   ************* Construction=CRAWL WALL
   ************* Construction=CEILING-FLOOR-LAYER
   ************* Construction=SLAB CONSTRUCTION W FULL R10 INSULATION
   ************* Construction=SLAB CONSTRUCTION W FULL R5 INSULATION
   ** Warning ** GetDXCoils: Coil:Heating:DX:SingleSpeed="DX_HEATING_COIL" curve values
   **   ~~~   ** ... Defrost Energy Input Ratio Function of Temperature Curve Name = DEFROSTEIR output is not equal to 1.0 (+ or - 10%) at rated conditions.
   **   ~~~   ** ... Curve output at rated conditions = 0.152
   ************* Beginning System Sizing Calculations
   ************* Beginning Plant Sizing Calculations
   ** Warning ** SizeDXCoil Coil:Cooling:DX:SingleSpeed DX_COOLING_COIL
   **   ~~~   ** ...Gross Rated Total Cooling Capacity [W] will be limited by the maximum rated volume flow per rated total capacity ratio.
   **   ~~~   ** ...DX coil volume flow rate ( m3/s ) = 0.407539
   **   ~~~   ** ...Requested capacity ( W ) = 6013.930
   **   ~~~   ** ...Requested flow/capacity ratio ( m3/s/W ) = 6.776E-005
   **   ~~~   ** ...Maximum flow/capacity ratio ( m3/s/W ) = 6.041E-005
   **   ~~~   ** ...Adjusted capacity ( W ) = 6746.217
   ** Warning ** Coil:WaterHeating:AirToWaterHeatPump:Wrapped "HEAT PUMP WATER HEATER EVAPORATOR": Rated air volume flow rate per watt of rated total water heating capacity is out of range
   **   ~~~   ** Min Rated Vol Flow Per Watt=[4.027E-005], Rated Vol Flow Per Watt=[1.386E-004], Max Rated Vol Flow Per Watt=[8.056E-005]. See Input-Output Reference Manual for valid range.
   ** Warning ** Water heater = WATER HEATER TANK:  Recovery Efficiency and Energy Factor could not be calculated during the test for standard ratings
   **   ~~~   ** Setpoint was never recovered and/or heater never turned on
   ** Warning ** Check input. Pump nominal power or motor efficiency is set to 0, for pump=MAINS PRESSURE
   ** Warning ** Output:Meter: invalid Key Name="ELECTRIC_RANGE:INTERIOREQUIPMENT:ELECTRICITY" - not found.
   ** Warning ** Output:Meter: invalid Key Name="ELECTRIC_DRYER:INTERIOREQUIPMENT:ELECTRICITY" - not found.
   ** Warning ** Output:Meter: invalid Key Name="HEATRECOVERY:ELECTRICITY" - not found.
   ** Warning ** Output:Meter: invalid Key Name="HEATING:NATURALGAS" - not found.
   ** Warning ** Output:Meter: invalid Key Name="WATERSYSTEMS:NATURALGAS" - not found.
   ** Warning ** Output:Meter: invalid Key Name="PROPANE:FACILITY" - not found.
   ** Warning ** Output:Meter: invalid Key Name="HEATING:PROPANE" - not found.
   ************* Testing Individual Branch Integrity
   ************* All Branches passed integrity testing
   ************* Testing Individual Supply Air Path Integrity
   ************* All Supply Air Paths passed integrity testing
   ************* Testing Individual Return Air Path Integrity
   ************* All Return Air Paths passed integrity testing
   ************* No node connection errors were found.
   ************* Beginning Simulation
   ** Warning ** AirflowNetwork::Solver::validate_distribution: Heat pump water heater is simulated along with an AirflowNetwork but is not included in the AirflowNetwork.
   ** Warning ** CalcEquipmentFlowRates: "TOTAL HOT WATER LOAD" - Target water temperature is greater than the hot water temperature by (1.64 C)
   **   ~~~   **  Environment=EXTREME_WINTER, at Simulation time=01/06 06:00 - 06:15
   **   ~~~   ** ...target water temperature     = 53.33 C
   **   ~~~   ** ...hot water temperature        = 51.69 C
   **   ~~~   ** ...Target water temperature should be less than or equal to the hot water temperature. Verify temperature setpoints and schedules.
   ** Warning ** SimHVAC: Maximum iterations (20) exceeded for all HVAC loops, at ANNUAL, 02/13 14:08 - 14:15
   **   ~~~   ** The solution for one or more of the Air Loop HVAC systems did not appear to converge
   **   ~~~   ** Air System Named = CENTRAL SYSTEM did not converge for mass flow rate
   **   ~~~   ** Check values should be zero. Most Recent values listed first.
   **   ~~~   ** Demand-to-Supply interface mass flow rate check value iteration history trace: 7.233467E-002,7.233467E-002,7.233467E-002,7.233467E-002,7.233467E-002,7.233467E-002,7.233467E-002,7.233467E-002,7.233467E-002,7.233467E-002,
   **   ~~~   ** Supply-to-demand interface deck 1 mass flow rate check value iteration history trace: 7.233467E-002,7.233467E-002,7.233467E-002,7.233467E-002,7.233467E-002,7.233467E-002,7.233467E-002,7.233467E-002,7.233467E-002,7.233467E-002,
   **   ~~~   ** Air System Named = CENTRAL SYSTEM did not converge for energy
   **   ~~~   ** Check values should be zero. Most Recent values listed first.
   **   ~~~   ** Demand-to-Supply interface energy check value iteration history trace: 1420.362895,1420.362895,1420.362895,1420.362894,1420.362894,1420.362894,1420.362894,1420.362894,1420.362894,1420.362894,
   **   ~~~   ** Supply-to-demand interface deck 1 energy check value iteration history trace: 2414.518001,2414.518000,2414.518000,2414.518000,2414.518000,2414.518000,2414.518000,2414.518000,2414.518000,2414.517999,
   ** Warning ** SimHVAC: Maximum iterations (20) exceeded for all HVAC loops, at ANNUAL, 02/25 10:32 - 10:34
   **   ~~~   ** The solution for one or more of the Air Loop HVAC systems did not appear to converge
   **   ~~~   ** Air System Named = CENTRAL SYSTEM did not converge for mass flow rate
   **   ~~~   ** Check values should be zero. Most Recent values listed first.
   **   ~~~   ** Demand-to-Supply interface mass flow rate check value iteration history trace: 7.568484E-002,7.568484E-002,7.568484E-002,7.568484E-002,7.568484E-002,7.568484E-002,7.568484E-002,7.568484E-002,7.568484E-002,7.568484E-002,
   **   ~~~   ** Supply-to-demand interface deck 1 mass flow rate check value iteration history trace: 7.568484E-002,7.568484E-002,7.568484E-002,7.568484E-002,7.568484E-002,7.568484E-002,7.568484E-002,7.568484E-002,7.568484E-002,7.568484E-002,
   **   ~~~   ** Air System Named = CENTRAL SYSTEM did not converge for energy
   **   ~~~   ** Check values should be zero. Most Recent values listed first.
   **   ~~~   ** Demand-to-Supply interface energy check value iteration history trace: 1499.929569,1499.929569,1499.929569,1499.929569,1499.929568,1499.929568,1499.929568,1499.929568,1499.929568,1499.929568,
   **   ~~~   ** Supply-to-demand interface deck 1 energy check value iteration history trace: 2531.489488,2531.489488,2531.489488,2531.489487,2531.489487,2531.489487,2531.489487,2531.489487,2531.489487,2531.489487,
   ** Warning ** SimHVAC: Maximum iterations (20) exceeded for all HVAC loops, at ANNUAL, 03/20 18:40 - 18:45
   **   ~~~   ** The solution for one or more of the Air Loop HVAC systems did not appear to converge
   **   ~~~   ** Air System Named = CENTRAL SYSTEM did not converge for mass flow rate
   **   ~~~   ** Check values should be zero. Most Recent values listed first.
   **   ~~~   ** Demand-to-Supply interface mass flow rate check value iteration history trace: 8.383101E-002,8.383101E-002,8.383101E-002,8.383101E-002,8.383101E-002,8.383101E-002,8.383101E-002,8.383101E-002,8.383101E-002,8.383101E-002,
   **   ~~~   ** Supply-to-demand interface deck 1 mass flow rate check value iteration history trace: 8.383101E-002,8.383101E-002,8.383101E-002,8.383101E-002,8.383101E-002,8.383101E-002,8.383101E-002,8.383101E-002,8.383101E-002,8.383101E-002,
   **   ~~~   ** Air System Named = CENTRAL SYSTEM did not converge for energy
   **   ~~~   ** Check values should be zero. Most Recent values listed first.
   **   ~~~   ** Demand-to-Supply interface energy check value iteration history trace: 1661.224761,1661.224761,1661.224761,1661.224761,1661.224761,1661.224760,1661.224760,1661.224760,1661.224760,1661.224760,
   **   ~~~   ** Supply-to-demand interface deck 1 energy check value iteration history trace: 2820.423525,2820.423525,2820.423525,2820.423525,2820.423525,2820.423525,2820.423525,2820.423525,2820.423524,2820.423524,
   ** Warning ** SimHVAC: Maximum iterations (20) exceeded for all HVAC loops, at ANNUAL, 04/10 07:23 - 07:30
   **   ~~~   ** The solution for one or more of the Air Loop HVAC systems did not appear to converge
   **   ~~~   ** Air System Named = CENTRAL SYSTEM did not converge for mass flow rate
   **   ~~~   ** Check values should be zero. Most Recent values listed first.
   **   ~~~   ** Demand-to-Supply interface mass flow rate check value iteration history trace: 6.736348E-002,6.736348E-002,6.736348E-002,6.736348E-002,6.736348E-002,6.736348E-002,6.736348E-002,6.736348E-002,6.736348E-002,6.736348E-002,
   **   ~~~   ** Supply-to-demand interface deck 1 mass flow rate check value iteration history trace: 6.736348E-002,6.736348E-002,6.736348E-002,6.736348E-002,6.736348E-002,6.736348E-002,6.736348E-002,6.736348E-002,6.736348E-002,6.736348E-002,
   **   ~~~   ** Air System Named = CENTRAL SYSTEM did not converge for energy
   **   ~~~   ** Check values should be zero. Most Recent values listed first.
   **   ~~~   ** Demand-to-Supply interface energy check value iteration history trace: 1327.333462,1327.333462,1327.333462,1327.333462,1327.333462,1327.333462,1327.333462,1327.333462,1327.333462,1327.333462,
   **   ~~~   ** Supply-to-demand interface deck 1 energy check value iteration history trace: 2439.611757,2439.611757,2439.611757,2439.611756,2439.611756,2439.611756,2439.611756,2439.611756,2439.611756,2439.611756,
   ** Warning ** SimHVAC: Maximum iterations (20) exceeded for all HVAC loops, at ANNUAL, 04/10 08:03 - 08:06
   **   ~~~   ** The solution for one or more of the Air Loop HVAC systems did not appear to converge
   **   ~~~   ** Air System Named = CENTRAL SYSTEM did not converge for mass flow rate
   **   ~~~   ** Check values should be zero. Most Recent values listed first.
   **   ~~~   ** Demand-to-Supply interface mass flow rate check value iteration history trace: 6.083799E-002,6.083799E-002,6.083799E-002,6.083799E-002,6.083799E-002,6.083799E-002,6.083799E-002,6.083799E-002,6.083799E-002,6.083799E-002,
   **   ~~~   ** Supply-to-demand interface deck 1 mass flow rate check value iteration history trace: 6.083799E-002,6.083799E-002,6.083799E-002,6.083799E-002,6.083799E-002,6.083799E-002,6.083799E-002,6.083799E-002,6.083799E-002,6.083799E-002,
   **   ~~~   ** Air System Named = CENTRAL SYSTEM did not converge for energy
   **   ~~~   ** Check values should be zero. Most Recent values listed first.
   **   ~~~   ** Demand-to-Supply interface energy check value iteration history trace: 1199.236486,1199.236486,1199.236486,1199.236485,1199.236485,1199.236485,1199.236485,1199.236485,1199.236485,1199.236485,
   **   ~~~   ** Supply-to-demand interface deck 1 energy check value iteration history trace: 2248.981650,2248.981650,2248.981650,2248.981650,2248.981650,2248.981650,2248.981650,2248.981650,2248.981650,2248.981650,
   ** Warning ** SimHVAC: Maximum iterations (20) exceeded for all HVAC loops, at ANNUAL, 04/21 07:10 - 07:15
   **   ~~~   ** The solution for one or more of the Air Loop HVAC systems did not appear to converge
   **   ~~~   ** Air System Named = CENTRAL SYSTEM did not converge for mass flow rate
   **   ~~~   ** Check values should be zero. Most Recent values listed first.
   **   ~~~   ** Demand-to-Supply interface mass flow rate check value iteration history trace: 5.991335E-002,5.991335E-002,5.991335E-002,5.991335E-002,5.991335E-002,5.991335E-002,5.991335E-002,5.991335E-002,5.991335E-002,5.991335E-002,
   **   ~~~   ** Supply-to-demand interface deck 1 mass flow rate check value iteration history trace: 5.991335E-002,5.991335E-002,5.991335E-002,5.991335E-002,5.991335E-002,5.991335E-002,5.991335E-002,5.991335E-002,5.991335E-002,5.991335E-002,
   **   ~~~   ** Air System Named = CENTRAL SYSTEM did not converge for energy
   **   ~~~   ** Check values should be zero. Most Recent values listed first.
   **   ~~~   ** Demand-to-Supply interface energy check value iteration history trace: 1176.363426,1176.363426,1176.363426,1176.363426,1176.363426,1176.363426,1176.363426,1176.363426,1176.363426,1176.363426,
   **   ~~~   ** Supply-to-demand interface deck 1 energy check value iteration history trace: 2105.088075,2105.088075,2105.088075,2105.088075,2105.088075,2105.088075,2105.088075,2105.088075,2105.088075,2105.088074,
   ** Warning ** SimHVAC: Maximum iterations (20) exceeded for all HVAC loops, at ANNUAL, 05/26 07:35 - 07:36
   **   ~~~   ** The solution for one or more of the Air Loop HVAC systems did not appear to converge
   **   ~~~   ** Air System Named = CENTRAL SYSTEM did not converge for mass flow rate
   **   ~~~   ** Check values should be zero. Most Recent values listed first.
   **   ~~~   ** Demand-to-Supply interface mass flow rate check value iteration history trace: 7.645378E-002,7.645378E-002,7.645378E-002,7.645378E-002,7.645378E-002,7.645378E-002,7.645378E-002,7.645378E-002,7.645378E-002,7.645378E-002,
   **   ~~~   ** Supply-to-demand interface deck 1 mass flow rate check value iteration history trace: 7.645378E-002,7.645378E-002,7.645378E-002,7.645378E-002,7.645378E-002,7.645378E-002,7.645378E-002,7.645378E-002,7.645378E-002,7.645378E-002,
   **   ~~~   ** Air System Named = CENTRAL SYSTEM did not converge for energy
   **   ~~~   ** Check values should be zero. Most Recent values listed first.
   **   ~~~   ** Demand-to-Supply interface energy check value iteration history trace: 1509.409059,1509.409059,1509.409059,1509.409059,1509.409059,1509.409059,1509.409058,1509.409058,1509.409058,1509.409058,
   **   ~~~   ** Supply-to-demand interface deck 1 energy check value iteration history trace: 2615.251550,2615.251550,2615.251549,2615.251549,2615.251549,2615.251549,2615.251549,2615.251549,2615.251549,2615.251549,
   ** Warning ** SimHVAC: Maximum iterations (20) exceeded for all HVAC loops, at ANNUAL, 05/28 08:34 - 08:38
   **   ~~~   ** The solution for one or more of the Air Loop HVAC systems did not appear to converge
   **   ~~~   ** Air System Named = CENTRAL SYSTEM did not converge for energy
   **   ~~~   ** Check values should be zero. Most Recent values listed first.
   **   ~~~   ** Demand-to-Supply interface energy check value iteration history trace: 62.793097,62.793097,62.793097,62.793097,62.793097,62.793097,62.793097,62.793097,62.793097,62.793097,
   **   ~~~   ** Supply-to-demand interface deck 1 energy check value iteration history trace: 34.134717,34.134717,34.134717,34.134717,34.134717,34.134717,34.134717,34.134717,34.134717,34.134717,
   ** Warning ** SimHVAC: Maximum iterations (20) exceeded for all HVAC loops, at ANNUAL, 10/21 08:19 - 08:21
   **   ~~~   ** The solution for one or more of the Air Loop HVAC systems did not appear to converge
   **   ~~~   ** Air System Named = CENTRAL SYSTEM did not converge for mass flow rate
   **   ~~~   ** Check values should be zero. Most Recent values listed first.
   **   ~~~   ** Demand-to-Supply interface mass flow rate check value iteration history trace: 7.969706E-002,7.969706E-002,7.969706E-002,7.969706E-002,7.969706E-002,7.969706E-002,7.969706E-002,7.969706E-002,7.969706E-002,7.969706E-002,
   **   ~~~   ** Supply-to-demand interface deck 1 mass flow rate check value iteration history trace: 7.969706E-002,7.969706E-002,7.969706E-002,7.969706E-002,7.969706E-002,7.969706E-002,7.969706E-002,7.969706E-002,7.969706E-002,7.969706E-002,
   **   ~~~   ** Air System Named = CENTRAL SYSTEM did not converge for energy
   **   ~~~   ** Check values should be zero. Most Recent values listed first.
   **   ~~~   ** Demand-to-Supply interface energy check value iteration history trace: 1579.659119,1579.659119,1579.659119,1579.659119,1579.659118,1579.659118,1579.659118,1579.659118,1579.659118,1579.659118,
   **   ~~~   ** Supply-to-demand interface deck 1 energy check value iteration history trace: 2719.756465,2719.756465,2719.756465,2719.756464,2719.756464,2719.756464,2719.756464,2719.756464,2719.756464,2719.756464,
   ** Warning ** SimHVAC: Maximum iterations (20) exceeded for all HVAC loops, at ANNUAL, 10/22 09:45 - 10:00
   **   ~~~   ** The solution for one or more of the Air Loop HVAC systems did not appear to converge
   **   ~~~   ** Air System Named = CENTRAL SYSTEM did not converge for mass flow rate
   **   ~~~   ** Check values should be zero. Most Recent values listed first.
   **   ~~~   ** Demand-to-Supply interface mass flow rate check value iteration history trace: 0.109262,0.109262,0.109262,0.109262,0.109262,0.109262,0.109262,0.109262,0.109262,0.109262,
   **   ~~~   ** Supply-to-demand interface deck 1 mass flow rate check value iteration history trace: 0.109262,0.109262,0.109262,0.109262,0.109262,0.109262,0.109262,0.109262,0.109262,0.109262,
   **   ~~~   ** Air System Named = CENTRAL SYSTEM did not converge for energy
   **   ~~~   ** Check values should be zero. Most Recent values listed first.
   **   ~~~   ** Demand-to-Supply interface energy check value iteration history trace: 2160.122720,2160.122720,2160.122720,2160.122719,2160.122719,2160.122719,2160.122719,2160.122719,2160.122719,2160.122719,
   **   ~~~   ** Supply-to-demand interface deck 1 energy check value iteration history trace: 3283.007141,3283.007140,3283.007140,3283.007140,3283.007140,3283.007140,3283.007139,3283.007139,3283.007139,3283.007139,
   ** Warning ** SimHVAC: Maximum iterations (20) exceeded for all HVAC loops, at ANNUAL, 11/05 19:30 - 19:45
   **   ~~~   ** The solution for one or more of the Air Loop HVAC systems did not appear to converge
   **   ~~~   ** Air System Named = CENTRAL SYSTEM did not converge for mass flow rate
   **   ~~~   ** Check values should be zero. Most Recent values listed first.
   **   ~~~   ** Demand-to-Supply interface mass flow rate check value iteration history trace: 0.116314,0.116314,0.116314,0.116314,0.116314,0.116314,0.116314,0.116314,0.116314,0.116314,
   **   ~~~   ** Supply-to-demand interface deck 1 mass flow rate check value iteration history trace: 0.116314,0.116314,0.116314,0.116314,0.116314,0.116314,0.116314,0.116314,0.116314,0.116314,
   **   ~~~   ** Air System Named = CENTRAL SYSTEM did not converge for energy
   **   ~~~   ** Check values should be zero. Most Recent values listed first.
   **   ~~~   ** Demand-to-Supply interface energy check value iteration history trace: 2301.325835,2301.325835,2301.325834,2301.325834,2301.325834,2301.325834,2301.325834,2301.325834,2301.325834,2301.325833,
   **   ~~~   ** Supply-to-demand interface deck 1 energy check value iteration history trace: 3528.822320,3528.822320,3528.822319,3528.822319,3528.822319,3528.822319,3528.822318,3528.822318,3528.822318,3528.822318,
   ** Warning ** SimHVAC: Maximum iterations (20) exceeded for all HVAC loops, at ANNUAL, 11/18 18:00 - 18:15
   **   ~~~   ** The solution for one or more of the Air Loop HVAC systems did not appear to converge
   **   ~~~   ** Air System Named = CENTRAL SYSTEM did not converge for mass flow rate
   **   ~~~   ** Check values should be zero. Most Recent values listed first.
   **   ~~~   ** Demand-to-Supply interface mass flow rate check value iteration history trace: 8.294224E-002,8.294224E-002,8.294224E-002,8.294224E-002,8.294224E-002,8.294224E-002,8.294224E-002,8.294224E-002,8.294224E-002,8.294224E-002,
   **   ~~~   ** Supply-to-demand interface deck 1 mass flow rate check value iteration history trace: 8.294224E-002,8.294224E-002,8.294224E-002,8.294224E-002,8.294224E-002,8.294224E-002,8.294224E-002,8.294224E-002,8.294224E-002,8.294224E-002,
   **   ~~~   ** Air System Named = CENTRAL SYSTEM did not converge for energy
   **   ~~~   ** Check values should be zero. Most Recent values listed first.
   **   ~~~   ** Demand-to-Supply interface energy check value iteration history trace: 1644.161375,1644.161375,1644.161375,1644.161375,1644.161375,1644.161375,1644.161375,1644.161375,1644.161375,1644.161375,
   **   ~~~   ** Supply-to-demand interface deck 1 energy check value iteration history trace: 2806.691623,2806.691623,2806.691623,2806.691623,2806.691623,2806.691623,2806.691623,2806.691622,2806.691622,2806.691622,
   ** Warning ** SimHVAC: Maximum iterations (20) exceeded for all HVAC loops, at ANNUAL, 12/26 19:45 - 20:00
   **   ~~~   ** The solution for one or more of the Air Loop HVAC systems did not appear to converge
   **   ~~~   ** Air System Named = CENTRAL SYSTEM did not converge for mass flow rate
   **   ~~~   ** Check values should be zero. Most Recent values listed first.
   **   ~~~   ** Demand-to-Supply interface mass flow rate check value iteration history trace: 0.109549,0.109549,0.109549,0.109549,0.109549,0.109549,0.109549,0.109549,0.109549,0.109549,
   **   ~~~   ** Supply-to-demand interface deck 1 mass flow rate check value iteration history trace: 0.109549,0.109549,0.109549,0.109549,0.109549,0.109549,0.109549,0.109549,0.109549,0.109549,
   **   ~~~   ** Air System Named = CENTRAL SYSTEM did not converge for energy
   **   ~~~   ** Check values should be zero. Most Recent values listed first.
   **   ~~~   ** Demand-to-Supply interface energy check value iteration history trace: 2169.452137,2169.452137,2169.452137,2169.452137,2169.452136,2169.452136,2169.452136,2169.452136,2169.452136,2169.452136,
   **   ~~~   ** Supply-to-demand interface deck 1 energy check value iteration history trace: 3346.509154,3346.509154,3346.509153,3346.509153,3346.509153,3346.509153,3346.509152,3346.509152,3346.509152,3346.509152,
   ************* Simulation Error Summary *************
   ** Warning ** The following Report Variables were requested but not generated -- check.rdd file
   **   ~~~   ** Either the IDF did not contain these elements, the variable name is misspelled,
   **   ~~~   ** or the requested variable is an advanced output which requires Output : Diagnostics, DisplayAdvancedReportVariables;
   ************* Key=*, VarName=BASEBOARD TOTAL HEATING ENERGY, Frequency=
   ************* Key=*, VarName=WATER HEATER NATURALGAS ENERGY, Frequency=
   ************* Key=*, VarName=COOLING COIL TOTAL HEATING ENERGY, Frequency=
   ************* There are 34 unused schedules in input.
   ************* There are 388 unused week schedules in input.
   ************* There are 396 unused day schedules in input.
   ************* Use Output:Diagnostics,DisplayUnusedSchedules; to see them.
   *************
   ************* ===== Recurring Error Summary =====
   ************* The following recurring error messages occurred.
   *************
   *************  ** Warning ** "TOTAL HOT WATER LOAD" - Target water temperature should be less than or equal to the hot water temperature error continues...
   *************  **   ~~~   **   This error occurred 104143 total times;
   *************  **   ~~~   **   during Warmup 0 times;
   *************  **   ~~~   **   during Sizing 0 times.
   *************  **   ~~~   **   Max=10.175945  Min=2.275107E-005
   *************
   *************
   ************* ===== Final Error Summary =====
   ************* The following error categories occurred.  Consider correcting or noting.
   ************* Nominally Unused Constructions
   ************* ..The nominally unused constructions warning is provided to alert you to potential conditions that can cause
   ************* ..extra time during simulation. Each construction is calculated by the algorithm indicated in the HeatBalanceAlgorithm
   ************* ..object. You may remove the constructions indicated (when you use the DisplayExtraWarnings option).
   *************
   ************* EnergyPlus Warmup Error Summary. During Warmup: 1 Warning; 0 Severe Errors.
   ************* EnergyPlus Sizing Error Summary. During Sizing: 4 Warning; 0 Severe Errors.
   ************* EnergyPlus Completed Successfully-- 104174 Warning; 0 Severe Errors; Elapsed Time=00hr 05min 13.06sec
