Program Version,EnergyPlus, Version 22.2.0-c249759bad, YMD=2023.09.01 15:02,
   ************* Beginning Zone Sizing Calculations
   ** Warning ** ProcessScheduleInput: Schedule:Constant="ALWAYS ON DISCRETE", Schedule Type Limits Name="ONOFF" not found -- will not be validated
   ** Warning ** Foundation:Kiva="KIVA FOUNDATION", no Interior Horizontal Insulation Material Name defined
   **   ~~~   ** Interior Horizontal Insulation Depth will not be used.
   ** Warning ** CheckUsedConstructions: There are 15 nominally unused constructions in input.
   **   ~~~   ** Each Unused construction is shown.
   ************* Construction=INTERIOR FLOOR
   ************* Construction=INTERIOR WINDOW
   ************* Construction=EXTERIOR DOOR
   ************* Construction=INTERIOR DOOR
   ************* Construction=GABLE CONSTRUCTION
   ************* Construction=CRAWL_FLOOR
   ************* Construction=INSULATED PIPE
   ************* Construction=PLAIN PIPE
   ************* Construction=TDD PIPE
   ************* Construction=TDD DOME
   ************* Construction=TDD DIFFUSER
   ************* Construction=CRAWL WALL
   ************* Construction=CEILING-FLOOR-LAYER
   ************* Construction=SLAB CONSTRUCTION W FULL R10 INSULATION
   ************* Construction=SLAB CONSTRUCTION W FULL R5 INSULATION
   ** Warning ** GetDXCoils: Coil:Heating:DX:SingleSpeed="DX_HEATING_COIL" curve values
   **   ~~~   ** ... Defrost Energy Input Ratio Function of Temperature Curve Name = DEFROSTEIR output is not equal to 1.0 (+ or - 10%) at rated conditions.
   **   ~~~   ** ... Curve output at rated conditions = 0.152
   ************* Beginning System Sizing Calculations
   ************* Beginning Plant Sizing Calculations
   ** Warning ** SizeDXCoil Coil:Cooling:DX:SingleSpeed DX_COOLING_COIL
   **   ~~~   ** ...Gross Rated Total Cooling Capacity [W] will be limited by the maximum rated volume flow per rated total capacity ratio.
   **   ~~~   ** ...DX coil volume flow rate ( m3/s ) = 0.443688
   **   ~~~   ** ...Requested capacity ( W ) = 6944.353
   **   ~~~   ** ...Requested flow/capacity ratio ( m3/s/W ) = 6.389E-005
   **   ~~~   ** ...Maximum flow/capacity ratio ( m3/s/W ) = 6.041E-005
   **   ~~~   ** ...Adjusted capacity ( W ) = 7344.620
   ** Warning ** Coil:WaterHeating:AirToWaterHeatPump:Wrapped "HEAT PUMP WATER HEATER EVAPORATOR": Rated air volume flow rate per watt of rated total water heating capacity is out of range
   **   ~~~   ** Min Rated Vol Flow Per Watt=[4.027E-005], Rated Vol Flow Per Watt=[1.386E-004], Max Rated Vol Flow Per Watt=[8.056E-005]. See Input-Output Reference Manual for valid range.
   ** Warning ** Water heater = WATER HEATER TANK:  Recovery Efficiency and Energy Factor could not be calculated during the test for standard ratings
   **   ~~~   ** Setpoint was never recovered and/or heater never turned on
   ** Warning ** Check input. Pump nominal power or motor efficiency is set to 0, for pump=MAINS PRESSURE
   ** Warning ** Output:Meter: invalid Key Name="ELECTRIC_RANGE:INTERIOREQUIPMENT:ELECTRICITY" - not found.
   ** Warning ** Output:Meter: invalid Key Name="ELECTRIC_DRYER:INTERIOREQUIPMENT:ELECTRICITY" - not found.
   ** Warning ** Output:Meter: invalid Key Name="HEATRECOVERY:ELECTRICITY" - not found.
   ** Warning ** Output:Meter: invalid Key Name="HEATING:NATURALGAS" - not found.
   ** Warning ** Output:Meter: invalid Key Name="WATERSYSTEMS:NATURALGAS" - not found.
   ** Warning ** Output:Meter: invalid Key Name="PROPANE:FACILITY" - not found.
   ** Warning ** Output:Meter: invalid Key Name="HEATING:PROPANE" - not found.
   ************* Testing Individual Branch Integrity
   ************* All Branches passed integrity testing
   ************* Testing Individual Supply Air Path Integrity
   ************* All Supply Air Paths passed integrity testing
   ************* Testing Individual Return Air Path Integrity
   ************* All Return Air Paths passed integrity testing
   ************* No node connection errors were found.
   ************* Beginning Simulation
   ** Warning ** AirflowNetwork::Solver::validate_distribution: Heat pump water heater is simulated along with an AirflowNetwork but is not included in the AirflowNetwork.
   ** Warning ** CalcEquipmentFlowRates: "TOTAL HOT WATER LOAD" - Target water temperature is greater than the hot water temperature by (1.63 C)
   **   ~~~   **  Environment=EXTREME_WINTER, at Simulation time=02/05 06:00 - 06:15
   **   ~~~   ** ...target water temperature     = 53.33 C
   **   ~~~   ** ...hot water temperature        = 51.71 C
   **   ~~~   ** ...Target water temperature should be less than or equal to the hot water temperature. Verify temperature setpoints and schedules.
   ** Warning ** SimHVAC: Maximum iterations (20) exceeded for all HVAC loops, at ANNUAL, 02/13 19:23 - 19:30
   **   ~~~   ** The solution for one or more of the Air Loop HVAC systems did not appear to converge
   **   ~~~   ** Air System Named = CENTRAL SYSTEM did not converge for mass flow rate
   **   ~~~   ** Check values should be zero. Most Recent values listed first.
   **   ~~~   ** Demand-to-Supply interface mass flow rate check value iteration history trace: 8.677762E-002,8.677762E-002,8.677762E-002,8.677762E-002,8.677762E-002,8.677762E-002,8.677762E-002,8.677762E-002,8.677762E-002,8.677762E-002,
   **   ~~~   ** Supply-to-demand interface deck 1 mass flow rate check value iteration history trace: 8.677762E-002,8.677762E-002,8.677762E-002,8.677762E-002,8.677762E-002,8.677762E-002,8.677762E-002,8.677762E-002,8.677762E-002,8.677762E-002,
   **   ~~~   ** Air System Named = CENTRAL SYSTEM did not converge for energy
   **   ~~~   ** Check values should be zero. Most Recent values listed first.
   **   ~~~   ** Demand-to-Supply interface energy check value iteration history trace: 1718.668729,1718.668729,1718.668729,1718.668729,1718.668729,1718.668729,1718.668729,1718.668729,1718.668729,1718.668729,
   **   ~~~   ** Supply-to-demand interface deck 1 energy check value iteration history trace: 2906.099799,2906.099798,2906.099798,2906.099798,2906.099798,2906.099798,2906.099798,2906.099797,2906.099797,2906.099797,
   ** Warning ** SimHVAC: Maximum iterations (20) exceeded for all HVAC loops, at ANNUAL, 03/07 18:15 - 18:30
   **   ~~~   ** The solution for one or more of the Air Loop HVAC systems did not appear to converge
   **   ~~~   ** Air System Named = CENTRAL SYSTEM did not converge for mass flow rate
   **   ~~~   ** Check values should be zero. Most Recent values listed first.
   **   ~~~   ** Demand-to-Supply interface mass flow rate check value iteration history trace: 9.294521E-002,9.294521E-002,9.294521E-002,9.294521E-002,9.294521E-002,9.294521E-002,9.294521E-002,9.294521E-002,9.294521E-002,9.294521E-002,
   **   ~~~   ** Supply-to-demand interface deck 1 mass flow rate check value iteration history trace: 9.294521E-002,9.294521E-002,9.294521E-002,9.294521E-002,9.294521E-002,9.294521E-002,9.294521E-002,9.294521E-002,9.294521E-002,9.294521E-002,
   **   ~~~   ** Air System Named = CENTRAL SYSTEM did not converge for energy
   **   ~~~   ** Check values should be zero. Most Recent values listed first.
   **   ~~~   ** Demand-to-Supply interface energy check value iteration history trace: 1840.407902,1840.407902,1840.407902,1840.407902,1840.407902,1840.407902,1840.407902,1840.407901,1840.407901,1840.407901,
   **   ~~~   ** Supply-to-demand interface deck 1 energy check value iteration history trace: 2812.887211,2812.887211,2812.887210,2812.887210,2812.887210,2812.887210,2812.887210,2812.887209,2812.887209,2812.887209,
   ** Warning ** SimHVAC: Maximum iterations (20) exceeded for all HVAC loops, at ANNUAL, 03/19 20:23 - 20:30
   **   ~~~   ** The solution for one or more of the Air Loop HVAC systems did not appear to converge
   **   ~~~   ** Air System Named = CENTRAL SYSTEM did not converge for mass flow rate
   **   ~~~   ** Check values should be zero. Most Recent values listed first.
   **   ~~~   ** Demand-to-Supply interface mass flow rate check value iteration history trace: 0.110233,0.110233,0.110233,0.110233,0.110233,0.110233,0.110233,0.110233,0.110233,0.110233,
   **   ~~~   ** Supply-to-demand interface deck 1 mass flow rate check value iteration history trace: 0.110233,0.110233,0.110233,0.110233,0.110233,0.110233,0.110233,0.110233,0.110233,0.110233,
   **   ~~~   ** Air System Named = CENTRAL SYSTEM did not converge for energy
   **   ~~~   ** Check values should be zero. Most Recent values listed first.
   **   ~~~   ** Demand-to-Supply interface energy check value iteration history trace: 2163.206023,2163.206023,2163.206023,2163.206022,2163.206022,2163.206022,2163.206022,2163.206022,2163.206022,2163.206022,
   **   ~~~   ** Supply-to-demand interface deck 1 energy check value iteration history trace: 3309.306779,3309.306779,3309.306779,3309.306779,3309.306778,3309.306778,3309.306778,3309.306778,3309.306777,3309.306777,
   ** Warning ** SimHVAC: Maximum iterations (20) exceeded for all HVAC loops, at ANNUAL, 05/06 10:30 - 10:35
   **   ~~~   ** The solution for one or more of the Air Loop HVAC systems did not appear to converge
   **   ~~~   ** Air System Named = CENTRAL SYSTEM did not converge for mass flow rate
   **   ~~~   ** Check values should be zero. Most Recent values listed first.
   **   ~~~   ** Demand-to-Supply interface mass flow rate check value iteration history trace: 7.756850E-002,7.756850E-002,7.756850E-002,7.756850E-002,7.756850E-002,7.756850E-002,7.756850E-002,7.756850E-002,7.756850E-002,7.756850E-002,
   **   ~~~   ** Supply-to-demand interface deck 1 mass flow rate check value iteration history trace: 7.756850E-002,7.756850E-002,7.756850E-002,7.756850E-002,7.756850E-002,7.756850E-002,7.756850E-002,7.756850E-002,7.756850E-002,7.756850E-002,
   **   ~~~   ** Air System Named = CENTRAL SYSTEM did not converge for energy
   **   ~~~   ** Check values should be zero. Most Recent values listed first.
   **   ~~~   ** Demand-to-Supply interface energy check value iteration history trace: 1528.134842,1528.134842,1528.134842,1528.134842,1528.134842,1528.134842,1528.134842,1528.134841,1528.134841,1528.134841,
   **   ~~~   ** Supply-to-demand interface deck 1 energy check value iteration history trace: 2668.542035,2668.542035,2668.542035,2668.542035,2668.542035,2668.542035,2668.542034,2668.542034,2668.542034,2668.542034,
   ** Warning ** SimHVAC: Maximum iterations (20) exceeded for all HVAC loops, at ANNUAL, 06/13 09:00 - 09:15
   **   ~~~   ** The solution for one or more of the Air Loop HVAC systems did not appear to converge
   **   ~~~   ** Air System Named = CENTRAL SYSTEM did not converge for mass flow rate
   **   ~~~   ** Check values should be zero. Most Recent values listed first.
   **   ~~~   ** Demand-to-Supply interface mass flow rate check value iteration history trace: 0.138482,0.138482,0.138482,0.138482,0.138482,0.138482,0.138482,0.138482,0.138482,0.138482,
   **   ~~~   ** Supply-to-demand interface deck 1 mass flow rate check value iteration history trace: 0.138482,0.138482,0.138482,0.138482,0.138482,0.138482,0.138482,0.138482,0.138482,0.138482,
   **   ~~~   ** Air System Named = CENTRAL SYSTEM did not converge for energy
   **   ~~~   ** Check values should be zero. Most Recent values listed first.
   **   ~~~   ** Demand-to-Supply interface energy check value iteration history trace: 3323.816025,3323.816025,3323.816026,3323.816026,3323.816026,3323.816027,3323.816027,3323.816027,3323.816028,3323.816028,
   **   ~~~   ** Supply-to-demand interface deck 1 energy check value iteration history trace: 1661.875413,1661.875413,1661.875413,1661.875413,1661.875414,1661.875414,1661.875414,1661.875414,1661.875414,1661.875414,
   ** Warning ** SimHVAC: Maximum iterations (20) exceeded for all HVAC loops, at ANNUAL, 10/03 20:45 - 21:00
   **   ~~~   ** The solution for one or more of the Air Loop HVAC systems did not appear to converge
   **   ~~~   ** Air System Named = CENTRAL SYSTEM did not converge for mass flow rate
   **   ~~~   ** Check values should be zero. Most Recent values listed first.
   **   ~~~   ** Demand-to-Supply interface mass flow rate check value iteration history trace: 0.111690,0.111690,0.111690,0.111690,0.111690,0.111690,0.111690,0.111690,0.111690,0.111690,
   **   ~~~   ** Supply-to-demand interface deck 1 mass flow rate check value iteration history trace: 0.111690,0.111690,0.111690,0.111690,0.111690,0.111690,0.111690,0.111690,0.111690,0.111690,
   **   ~~~   ** Air System Named = CENTRAL SYSTEM did not converge for energy
   **   ~~~   ** Check values should be zero. Most Recent values listed first.
   **   ~~~   ** Demand-to-Supply interface energy check value iteration history trace: 2636.148669,2636.148670,2636.148670,2636.148670,2636.148670,2636.148670,2636.148671,2636.148671,2636.148671,2636.148671,
   **   ~~~   ** Supply-to-demand interface deck 1 energy check value iteration history trace: 1211.190709,1211.190709,1211.190709,1211.190709,1211.190709,1211.190709,1211.190709,1211.190710,1211.190710,1211.190710,
   ** Warning ** SimHVAC: Maximum iterations (20) exceeded for all HVAC loops, at ANNUAL, 10/04 21:15 - 21:30
   **   ~~~   ** The solution for one or more of the Air Loop HVAC systems did not appear to converge
   **   ~~~   ** Air System Named = CENTRAL SYSTEM did not converge for mass flow rate
   **   ~~~   ** Check values should be zero. Most Recent values listed first.
   **   ~~~   ** Demand-to-Supply interface mass flow rate check value iteration history trace: 5.931631E-002,5.931631E-002,5.931631E-002,5.931631E-002,5.931631E-002,5.931631E-002,5.931631E-002,5.931631E-002,5.931631E-002,5.931631E-002,
   **   ~~~   ** Supply-to-demand interface deck 1 mass flow rate check value iteration history trace: 5.931631E-002,5.931631E-002,5.931631E-002,5.931631E-002,5.931631E-002,5.931631E-002,5.931631E-002,5.931631E-002,5.931631E-002,5.931631E-002,
   **   ~~~   ** Air System Named = CENTRAL SYSTEM did not converge for energy
   **   ~~~   ** Check values should be zero. Most Recent values listed first.
   **   ~~~   ** Demand-to-Supply interface energy check value iteration history trace: 1402.179232,1402.179232,1402.179232,1402.179232,1402.179232,1402.179232,1402.179233,1402.179233,1402.179233,1402.179233,
   **   ~~~   ** Supply-to-demand interface deck 1 energy check value iteration history trace: 570.826604,570.826604,570.826604,570.826604,570.826604,570.826604,570.826604,570.826605,570.826605,570.826605,
   ** Warning ** SimHVAC: Maximum iterations (20) exceeded for all HVAC loops, at ANNUAL, 10/28 11:40 - 11:45
   **   ~~~   ** The solution for one or more of the Air Loop HVAC systems did not appear to converge
   **   ~~~   ** Air System Named = CENTRAL SYSTEM did not converge for mass flow rate
   **   ~~~   ** Check values should be zero. Most Recent values listed first.
   **   ~~~   ** Demand-to-Supply interface mass flow rate check value iteration history trace: 7.352319E-002,7.352319E-002,7.352319E-002,7.352319E-002,7.352319E-002,7.352319E-002,7.352319E-002,7.352319E-002,7.352319E-002,7.352319E-002,
   **   ~~~   ** Supply-to-demand interface deck 1 mass flow rate check value iteration history trace: 7.352319E-002,7.352319E-002,7.352319E-002,7.352319E-002,7.352319E-002,7.352319E-002,7.352319E-002,7.352319E-002,7.352319E-002,7.352319E-002,
   **   ~~~   ** Air System Named = CENTRAL SYSTEM did not converge for energy
   **   ~~~   ** Check values should be zero. Most Recent values listed first.
   **   ~~~   ** Demand-to-Supply interface energy check value iteration history trace: 1456.963906,1456.963906,1456.963906,1456.963906,1456.963905,1456.963905,1456.963905,1456.963905,1456.963905,1456.963905,
   **   ~~~   ** Supply-to-demand interface deck 1 energy check value iteration history trace: 2288.622050,2288.622050,2288.622050,2288.622050,2288.622050,2288.622050,2288.622050,2288.622050,2288.622049,2288.622049,
   ** Warning ** SimHVAC: Maximum iterations (20) exceeded for all HVAC loops, at ANNUAL, 10/29 10:30 - 10:34
   **   ~~~   ** The solution for one or more of the Air Loop HVAC systems did not appear to converge
   **   ~~~   ** Air System Named = CENTRAL SYSTEM did not converge for mass flow rate
   **   ~~~   ** Check values should be zero. Most Recent values listed first.
   **   ~~~   ** Demand-to-Supply interface mass flow rate check value iteration history trace: 0.101328,0.101328,0.101328,0.101328,0.101328,0.101328,0.101328,0.101328,0.101328,0.101328,
   **   ~~~   ** Supply-to-demand interface deck 1 mass flow rate check value iteration history trace: 0.101328,0.101328,0.101328,0.101328,0.101328,0.101328,0.101328,0.101328,0.101328,0.101328,
   **   ~~~   ** Air System Named = CENTRAL SYSTEM did not converge for energy
   **   ~~~   ** Check values should be zero. Most Recent values listed first.
   **   ~~~   ** Demand-to-Supply interface energy check value iteration history trace: 2003.101003,2003.101003,2003.101003,2003.101003,2003.101003,2003.101003,2003.101003,2003.101003,2003.101002,2003.101002,
   **   ~~~   ** Supply-to-demand interface deck 1 energy check value iteration history trace: 3159.439856,3159.439856,3159.439856,3159.439856,3159.439855,3159.439855,3159.439855,3159.439855,3159.439855,3159.439854,
   ** Warning ** Temperature out of range [-100. to 200.] (PsyPsatFnTemp)
   **   ~~~   **  Routine=PsyTwbFnTdbWPb, Environment=ANNUAL, at Simulation time=11/18 02:30 - 02:45
   **   ~~~   **  Input Temperature=-174.10
   ** Warning ** SimHVAC: Maximum iterations (20) exceeded for all HVAC loops, at ANNUAL, 12/29 15:45 - 16:00
   **   ~~~   ** The solution for one or more of the Air Loop HVAC systems did not appear to converge
   **   ~~~   ** Air System Named = CENTRAL SYSTEM did not converge for mass flow rate
   **   ~~~   ** Check values should be zero. Most Recent values listed first.
   **   ~~~   ** Demand-to-Supply interface mass flow rate check value iteration history trace: 0.105057,0.105057,0.105057,0.105057,0.105057,0.105057,0.105057,0.105057,0.105057,0.105057,
   **   ~~~   ** Supply-to-demand interface deck 1 mass flow rate check value iteration history trace: 0.105057,0.105057,0.105057,0.105057,0.105057,0.105057,0.105057,0.105057,0.105057,0.105057,
   **   ~~~   ** Air System Named = CENTRAL SYSTEM did not converge for energy
   **   ~~~   ** Check values should be zero. Most Recent values listed first.
   **   ~~~   ** Demand-to-Supply interface energy check value iteration history trace: 2081.006095,2081.006094,2081.006094,2081.006094,2081.006094,2081.006094,2081.006094,2081.006094,2081.006093,2081.006093,
   **   ~~~   ** Supply-to-demand interface deck 1 energy check value iteration history trace: 3169.449825,3169.449825,3169.449825,3169.449824,3169.449824,3169.449824,3169.449824,3169.449824,3169.449823,3169.449823,
   ************* Simulation Error Summary *************
   ** Warning ** The following Report Variables were requested but not generated -- check.rdd file
   **   ~~~   ** Either the IDF did not contain these elements, the variable name is misspelled,
   **   ~~~   ** or the requested variable is an advanced output which requires Output : Diagnostics, DisplayAdvancedReportVariables;
   ************* Key=*, VarName=BASEBOARD TOTAL HEATING ENERGY, Frequency=
   ************* Key=*, VarName=WATER HEATER NATURALGAS ENERGY, Frequency=
   ************* Key=*, VarName=COOLING COIL TOTAL HEATING ENERGY, Frequency=
   ************* There are 34 unused schedules in input.
   ************* There are 388 unused week schedules in input.
   ************* There are 396 unused day schedules in input.
   ************* Use Output:Diagnostics,DisplayUnusedSchedules; to see them.
   *************
   ************* ===== Recurring Error Summary =====
   ************* The following recurring error messages occurred.
   *************
   *************  ** Warning ** "TOTAL HOT WATER LOAD" - Target water temperature should be less than or equal to the hot water temperature error continues...
   *************  **   ~~~   **   This error occurred 82111 total times;
   *************  **   ~~~   **   during Warmup 0 times;
   *************  **   ~~~   **   during Sizing 0 times.
   *************  **   ~~~   **   Max=11.812396  Min=2.129388E-004
   *************
   *************  ** Warning ** Temperature out of range [-100. to 200.] (PsyPsatFnTemp)
   *************  **   ~~~   **   This error occurred 1 total times;
   *************  **   ~~~   **   during Warmup 0 times;
   *************  **   ~~~   **   during Sizing 0 times.
   *************  **   ~~~   **   Max=-174.105957 C  Min=-174.105957 C
   *************
   *************
   ************* ===== Final Error Summary =====
   ************* The following error categories occurred.  Consider correcting or noting.
   ************* Nominally Unused Constructions
   ************* ..The nominally unused constructions warning is provided to alert you to potential conditions that can cause
   ************* ..extra time during simulation. Each construction is calculated by the algorithm indicated in the HeatBalanceAlgorithm
   ************* ..object. You may remove the constructions indicated (when you use the DisplayExtraWarnings option).
   *************
   ************* EnergyPlus Warmup Error Summary. During Warmup: 1 Warning; 0 Severe Errors.
   ************* EnergyPlus Sizing Error Summary. During Sizing: 4 Warning; 0 Severe Errors.
   ************* EnergyPlus Completed Successfully-- 82140 Warning; 0 Severe Errors; Elapsed Time=00hr 05min  9.08sec
