Program Version,EnergyPlus, Version 22.2.0-c249759bad, YMD=2023.09.01 19:47,
   ************* Beginning Zone Sizing Calculations
   ** Warning ** ProcessScheduleInput: Schedule:Constant="ALWAYS ON DISCRETE", Schedule Type Limits Name="ONOFF" not found -- will not be validated
   ** Warning ** Foundation:Kiva="KIVA FOUNDATION", no Interior Horizontal Insulation Material Name defined
   **   ~~~   ** Interior Horizontal Insulation Depth will not be used.
   ** Warning ** CheckUsedConstructions: There are 15 nominally unused constructions in input.
   **   ~~~   ** Each Unused construction is shown.
   ************* Construction=INTERIOR FLOOR
   ************* Construction=INTERIOR WINDOW
   ************* Construction=EXTERIOR DOOR
   ************* Construction=INTERIOR DOOR
   ************* Construction=GABLE CONSTRUCTION
   ************* Construction=CRAWL_FLOOR
   ************* Construction=INSULATED PIPE
   ************* Construction=PLAIN PIPE
   ************* Construction=TDD PIPE
   ************* Construction=TDD DOME
   ************* Construction=TDD DIFFUSER
   ************* Construction=CRAWL WALL
   ************* Construction=CEILING-FLOOR-LAYER
   ************* Construction=SLAB CONSTRUCTION W FULL R10 INSULATION
   ************* Construction=SLAB CONSTRUCTION W FULL R5 INSULATION
   ** Warning ** GetDXCoils: Coil:Heating:DX:SingleSpeed="DX_HEATING_COIL" curve values
   **   ~~~   ** ... Defrost Energy Input Ratio Function of Temperature Curve Name = DEFROSTEIR output is not equal to 1.0 (+ or - 10%) at rated conditions.
   **   ~~~   ** ... Curve output at rated conditions = 0.152
   ************* Beginning System Sizing Calculations
   ************* Beginning Plant Sizing Calculations
   ** Warning ** SizeDXCoil Coil:Cooling:DX:SingleSpeed DX_COOLING_COIL
   **   ~~~   ** ...Gross Rated Total Cooling Capacity [W] will be limited by the maximum rated volume flow per rated total capacity ratio.
   **   ~~~   ** ...DX coil volume flow rate ( m3/s ) = 0.415449
   **   ~~~   ** ...Requested capacity ( W ) = 6678.054
   **   ~~~   ** ...Requested flow/capacity ratio ( m3/s/W ) = 6.221E-005
   **   ~~~   ** ...Maximum flow/capacity ratio ( m3/s/W ) = 6.041E-005
   **   ~~~   ** ...Adjusted capacity ( W ) = 6877.161
   ** Warning ** Coil:WaterHeating:AirToWaterHeatPump:Wrapped "HEAT PUMP WATER HEATER EVAPORATOR": Rated air volume flow rate per watt of rated total water heating capacity is out of range
   **   ~~~   ** Min Rated Vol Flow Per Watt=[4.027E-005], Rated Vol Flow Per Watt=[1.510E-004], Max Rated Vol Flow Per Watt=[8.056E-005]. See Input-Output Reference Manual for valid range.
   ************* SizeFan: : Potential issue with equipment sizing for Fan:OnOff HEAT PUMP WATER HEATER FAN
   **   ~~~   ** User-Specified Maximum Flow Rate [m3/s] = 0.22653
   **   ~~~   ** differs from Design Size Maximum Flow Rate [m3/s] = 7.55250E-002
   **   ~~~   ** This may, or may not, indicate mismatched component sizes.
   **   ~~~   ** Verify that the value entered is intended and is consistent with other components.
   ** Warning ** Water heater = WATER HEATER TANK:  Recovery Efficiency and Energy Factor could not be calculated during the test for standard ratings
   **   ~~~   ** Setpoint was never recovered and/or heater never turned on
   ** Warning ** Check input. Pump nominal power or motor efficiency is set to 0, for pump=MAINS PRESSURE
   ** Warning ** Output:Meter: invalid Key Name="ELECTRIC_RANGE:INTERIOREQUIPMENT:ELECTRICITY" - not found.
   ** Warning ** Output:Meter: invalid Key Name="ELECTRIC_DRYER:INTERIOREQUIPMENT:ELECTRICITY" - not found.
   ** Warning ** Output:Meter: invalid Key Name="HEATRECOVERY:ELECTRICITY" - not found.
   ** Warning ** Output:Meter: invalid Key Name="HEATING:NATURALGAS" - not found.
   ** Warning ** Output:Meter: invalid Key Name="WATERSYSTEMS:NATURALGAS" - not found.
   ** Warning ** Output:Meter: invalid Key Name="PROPANE:FACILITY" - not found.
   ** Warning ** Output:Meter: invalid Key Name="HEATING:PROPANE" - not found.
   ************* Testing Individual Branch Integrity
   ************* All Branches passed integrity testing
   ************* Testing Individual Supply Air Path Integrity
   ************* All Supply Air Paths passed integrity testing
   ************* Testing Individual Return Air Path Integrity
   ************* All Return Air Paths passed integrity testing
   ************* No node connection errors were found.
   ************* Beginning Simulation
   ** Warning ** AirflowNetwork::Solver::validate_distribution: Heat pump water heater is simulated along with an AirflowNetwork but is not included in the AirflowNetwork.
   ** Warning ** CalcEquipmentFlowRates: "TOTAL HOT WATER LOAD" - Target water temperature is greater than the hot water temperature by (3.72 C)
   **   ~~~   **  Environment=EXTREME_WINTER, at Simulation time=01/06 06:00 - 06:15
   **   ~~~   ** ...target water temperature     = 53.33 C
   **   ~~~   ** ...hot water temperature        = 49.61 C
   **   ~~~   ** ...Target water temperature should be less than or equal to the hot water temperature. Verify temperature setpoints and schedules.
   ** Warning ** SimHVAC: Maximum iterations (20) exceeded for all HVAC loops, at ANNUAL, 02/05 13:35 - 13:40
   **   ~~~   ** The solution for one or more of the Air Loop HVAC systems did not appear to converge
   **   ~~~   ** Air System Named = CENTRAL SYSTEM did not converge for mass flow rate
   **   ~~~   ** Check values should be zero. Most Recent values listed first.
   **   ~~~   ** Demand-to-Supply interface mass flow rate check value iteration history trace: 9.436580E-002,9.436580E-002,9.436580E-002,9.436580E-002,9.436580E-002,9.436580E-002,9.436580E-002,9.436580E-002,9.436580E-002,9.436580E-002,
   **   ~~~   ** Supply-to-demand interface deck 1 mass flow rate check value iteration history trace: 9.436580E-002,9.436580E-002,9.436580E-002,9.436580E-002,9.436580E-002,9.436580E-002,9.436580E-002,9.436580E-002,9.436580E-002,9.436580E-002,
   **   ~~~   ** Air System Named = CENTRAL SYSTEM did not converge for energy
   **   ~~~   ** Check values should be zero. Most Recent values listed first.
   **   ~~~   ** Demand-to-Supply interface energy check value iteration history trace: 1869.923114,1869.923114,1869.923113,1869.923113,1869.923113,1869.923113,1869.923113,1869.923113,1869.923113,1869.923112,
   **   ~~~   ** Supply-to-demand interface deck 1 energy check value iteration history trace: 2747.369637,2747.369637,2747.369637,2747.369637,2747.369637,2747.369636,2747.369636,2747.369636,2747.369636,2747.369635,
   ** Warning ** SimHVAC: Maximum iterations (20) exceeded for all HVAC loops, at ANNUAL, 02/07 17:25 - 17:30
   **   ~~~   ** The solution for one or more of the Air Loop HVAC systems did not appear to converge
   **   ~~~   ** Air System Named = CENTRAL SYSTEM did not converge for mass flow rate
   **   ~~~   ** Check values should be zero. Most Recent values listed first.
   **   ~~~   ** Demand-to-Supply interface mass flow rate check value iteration history trace: 7.219258E-002,7.219258E-002,7.219258E-002,7.219258E-002,7.219258E-002,7.219258E-002,7.219258E-002,7.219258E-002,7.219258E-002,7.219258E-002,
   **   ~~~   ** Supply-to-demand interface deck 1 mass flow rate check value iteration history trace: 7.219258E-002,7.219258E-002,7.219258E-002,7.219258E-002,7.219258E-002,7.219258E-002,7.219258E-002,7.219258E-002,7.219258E-002,7.219258E-002,
   **   ~~~   ** Air System Named = CENTRAL SYSTEM did not converge for energy
   **   ~~~   ** Check values should be zero. Most Recent values listed first.
   **   ~~~   ** Demand-to-Supply interface energy check value iteration history trace: 1422.940259,1422.940258,1422.940258,1422.940258,1422.940258,1422.940258,1422.940258,1422.940258,1422.940258,1422.940258,
   **   ~~~   ** Supply-to-demand interface deck 1 energy check value iteration history trace: 2391.635640,2391.635639,2391.635639,2391.635639,2391.635639,2391.635639,2391.635639,2391.635639,2391.635639,2391.635639,
   ** Warning ** SimHVAC: Maximum iterations (20) exceeded for all HVAC loops, at ANNUAL, 02/13 20:15 - 20:30
   **   ~~~   ** The solution for one or more of the Air Loop HVAC systems did not appear to converge
   **   ~~~   ** Air System Named = CENTRAL SYSTEM did not converge for mass flow rate
   **   ~~~   ** Check values should be zero. Most Recent values listed first.
   **   ~~~   ** Demand-to-Supply interface mass flow rate check value iteration history trace: 4.099620E-002,4.099620E-002,4.099620E-002,4.099620E-002,4.099620E-002,4.099620E-002,4.099620E-002,4.099620E-002,4.099620E-002,4.099620E-002,
   **   ~~~   ** Supply-to-demand interface deck 1 mass flow rate check value iteration history trace: 4.099620E-002,4.099620E-002,4.099620E-002,4.099620E-002,4.099620E-002,4.099620E-002,4.099620E-002,4.099620E-002,4.099620E-002,4.099620E-002,
   **   ~~~   ** Air System Named = CENTRAL SYSTEM did not converge for energy
   **   ~~~   ** Check values should be zero. Most Recent values listed first.
   **   ~~~   ** Demand-to-Supply interface energy check value iteration history trace: 794.972684,794.972684,794.972684,794.972684,794.972684,794.972684,794.972684,794.972684,794.972684,794.972684,
   **   ~~~   ** Supply-to-demand interface deck 1 energy check value iteration history trace: 1409.936865,1409.936865,1409.936865,1409.936865,1409.936865,1409.936865,1409.936865,1409.936865,1409.936865,1409.936865,
   ** Warning ** SimHVAC: Maximum iterations (20) exceeded for all HVAC loops, at ANNUAL, 02/17 09:49 - 09:51
   **   ~~~   ** The solution for one or more of the Air Loop HVAC systems did not appear to converge
   **   ~~~   ** Air System Named = CENTRAL SYSTEM did not converge for mass flow rate
   **   ~~~   ** Check values should be zero. Most Recent values listed first.
   **   ~~~   ** Demand-to-Supply interface mass flow rate check value iteration history trace: 6.327259E-002,6.327259E-002,6.327259E-002,6.327259E-002,6.327259E-002,6.327259E-002,6.327259E-002,6.327259E-002,6.327259E-002,6.327259E-002,
   **   ~~~   ** Supply-to-demand interface deck 1 mass flow rate check value iteration history trace: 6.327259E-002,6.327259E-002,6.327259E-002,6.327259E-002,6.327259E-002,6.327259E-002,6.327259E-002,6.327259E-002,6.327259E-002,6.327259E-002,
   **   ~~~   ** Air System Named = CENTRAL SYSTEM did not converge for energy
   **   ~~~   ** Check values should be zero. Most Recent values listed first.
   **   ~~~   ** Demand-to-Supply interface energy check value iteration history trace: 1249.022195,1249.022195,1249.022195,1249.022195,1249.022195,1249.022195,1249.022195,1249.022195,1249.022194,1249.022194,
   **   ~~~   ** Supply-to-demand interface deck 1 energy check value iteration history trace: 2238.514218,2238.514218,2238.514218,2238.514218,2238.514218,2238.514218,2238.514218,2238.514218,2238.514218,2238.514218,
   ** Warning ** SimHVAC: Maximum iterations (20) exceeded for all HVAC loops, at ANNUAL, 03/06 07:38 - 07:45
   **   ~~~   ** The solution for one or more of the Air Loop HVAC systems did not appear to converge
   **   ~~~   ** Air System Named = CENTRAL SYSTEM did not converge for mass flow rate
   **   ~~~   ** Check values should be zero. Most Recent values listed first.
   **   ~~~   ** Demand-to-Supply interface mass flow rate check value iteration history trace: 6.590677E-002,6.590677E-002,6.590677E-002,6.590677E-002,6.590677E-002,6.590677E-002,6.590677E-002,6.590677E-002,6.590677E-002,6.590677E-002,
   **   ~~~   ** Supply-to-demand interface deck 1 mass flow rate check value iteration history trace: 6.590677E-002,6.590677E-002,6.590677E-002,6.590677E-002,6.590677E-002,6.590677E-002,6.590677E-002,6.590677E-002,6.590677E-002,6.590677E-002,
   **   ~~~   ** Air System Named = CENTRAL SYSTEM did not converge for energy
   **   ~~~   ** Check values should be zero. Most Recent values listed first.
   **   ~~~   ** Demand-to-Supply interface energy check value iteration history trace: 1306.302875,1306.302875,1306.302875,1306.302875,1306.302875,1306.302875,1306.302875,1306.302875,1306.302875,1306.302875,
   **   ~~~   ** Supply-to-demand interface deck 1 energy check value iteration history trace: 2245.872502,2245.872502,2245.872502,2245.872502,2245.872502,2245.872502,2245.872502,2245.872502,2245.872501,2245.872501,
   ** Warning ** SimHVAC: Maximum iterations (20) exceeded for all HVAC loops, at ANNUAL, 03/09 13:38 - 13:45
   **   ~~~   ** The solution for one or more of the Air Loop HVAC systems did not appear to converge
   **   ~~~   ** Air System Named = CENTRAL SYSTEM did not converge for mass flow rate
   **   ~~~   ** Check values should be zero. Most Recent values listed first.
   **   ~~~   ** Demand-to-Supply interface mass flow rate check value iteration history trace: 3.028183E-002,3.028183E-002,3.028183E-002,3.028183E-002,3.028183E-002,3.028183E-002,3.028183E-002,3.028183E-002,3.028183E-002,3.028183E-002,
   **   ~~~   ** Supply-to-demand interface deck 1 mass flow rate check value iteration history trace: 3.028183E-002,3.028183E-002,3.028183E-002,3.028183E-002,3.028183E-002,3.028183E-002,3.028183E-002,3.028183E-002,3.028183E-002,3.028183E-002,
   **   ~~~   ** Air System Named = CENTRAL SYSTEM did not converge for energy
   **   ~~~   ** Check values should be zero. Most Recent values listed first.
   **   ~~~   ** Demand-to-Supply interface energy check value iteration history trace: 600.085250,600.085250,600.085250,600.085250,600.085250,600.085250,600.085250,600.085250,600.085250,600.085250,
   **   ~~~   ** Supply-to-demand interface deck 1 energy check value iteration history trace: 1096.228350,1096.228350,1096.228350,1096.228350,1096.228350,1096.228350,1096.228350,1096.228350,1096.228350,1096.228350,
   ** Warning ** SimHVAC: Maximum iterations (20) exceeded for all HVAC loops, at ANNUAL, 03/20 10:57 - 11:00
   **   ~~~   ** The solution for one or more of the Air Loop HVAC systems did not appear to converge
   **   ~~~   ** Air System Named = CENTRAL SYSTEM did not converge for mass flow rate
   **   ~~~   ** Check values should be zero. Most Recent values listed first.
   **   ~~~   ** Demand-to-Supply interface mass flow rate check value iteration history trace: 5.057395E-002,5.057395E-002,5.057395E-002,5.057395E-002,5.057395E-002,5.057395E-002,5.057395E-002,5.057395E-002,5.057395E-002,5.057395E-002,
   **   ~~~   ** Supply-to-demand interface deck 1 mass flow rate check value iteration history trace: 5.057395E-002,5.057395E-002,5.057395E-002,5.057395E-002,5.057395E-002,5.057395E-002,5.057395E-002,5.057395E-002,5.057395E-002,5.057395E-002,
   **   ~~~   ** Air System Named = CENTRAL SYSTEM did not converge for energy
   **   ~~~   ** Check values should be zero. Most Recent values listed first.
   **   ~~~   ** Demand-to-Supply interface energy check value iteration history trace: 999.310354,999.310354,999.310354,999.310354,999.310354,999.310354,999.310354,999.310354,999.310354,999.310354,
   **   ~~~   ** Supply-to-demand interface deck 1 energy check value iteration history trace: 1839.695345,1839.695345,1839.695345,1839.695345,1839.695345,1839.695345,1839.695345,1839.695345,1839.695345,1839.695345,
   ** Warning ** SimHVAC: Maximum iterations (20) exceeded for all HVAC loops, at ANNUAL, 03/21 09:15 - 09:22
   **   ~~~   ** The solution for one or more of the Air Loop HVAC systems did not appear to converge
   **   ~~~   ** Air System Named = CENTRAL SYSTEM did not converge for mass flow rate
   **   ~~~   ** Check values should be zero. Most Recent values listed first.
   **   ~~~   ** Demand-to-Supply interface mass flow rate check value iteration history trace: 6.234909E-002,6.234909E-002,6.234909E-002,6.234909E-002,6.234909E-002,6.234909E-002,6.234909E-002,6.234909E-002,6.234909E-002,6.234909E-002,
   **   ~~~   ** Supply-to-demand interface deck 1 mass flow rate check value iteration history trace: 6.234909E-002,6.234909E-002,6.234909E-002,6.234909E-002,6.234909E-002,6.234909E-002,6.234909E-002,6.234909E-002,6.234909E-002,6.234909E-002,
   **   ~~~   ** Air System Named = CENTRAL SYSTEM did not converge for energy
   **   ~~~   ** Check values should be zero. Most Recent values listed first.
   **   ~~~   ** Demand-to-Supply interface energy check value iteration history trace: 1235.450196,1235.450196,1235.450196,1235.450196,1235.450196,1235.450196,1235.450196,1235.450196,1235.450196,1235.450196,
   **   ~~~   ** Supply-to-demand interface deck 1 energy check value iteration history trace: 2095.259073,2095.259072,2095.259072,2095.259072,2095.259072,2095.259072,2095.259072,2095.259072,2095.259072,2095.259072,
   ** Warning ** SimHVAC: Maximum iterations (20) exceeded for all HVAC loops, at ANNUAL, 03/25 10:26 - 10:30
   **   ~~~   ** The solution for one or more of the Air Loop HVAC systems did not appear to converge
   **   ~~~   ** Air System Named = CENTRAL SYSTEM did not converge for mass flow rate
   **   ~~~   ** Check values should be zero. Most Recent values listed first.
   **   ~~~   ** Demand-to-Supply interface mass flow rate check value iteration history trace: 6.727143E-002,6.727143E-002,6.727143E-002,6.727143E-002,6.727143E-002,6.727143E-002,6.727143E-002,6.727143E-002,6.727143E-002,6.727143E-002,
   **   ~~~   ** Supply-to-demand interface deck 1 mass flow rate check value iteration history trace: 6.727143E-002,6.727143E-002,6.727143E-002,6.727143E-002,6.727143E-002,6.727143E-002,6.727143E-002,6.727143E-002,6.727143E-002,6.727143E-002,
   **   ~~~   ** Air System Named = CENTRAL SYSTEM did not converge for energy
   **   ~~~   ** Check values should be zero. Most Recent values listed first.
   **   ~~~   ** Demand-to-Supply interface energy check value iteration history trace: 1330.865183,1330.865182,1330.865182,1330.865182,1330.865182,1330.865182,1330.865182,1330.865182,1330.865182,1330.865182,
   **   ~~~   ** Supply-to-demand interface deck 1 energy check value iteration history trace: 2267.493166,2267.493166,2267.493165,2267.493165,2267.493165,2267.493165,2267.493165,2267.493165,2267.493165,2267.493165,
   ** Warning ** SimHVAC: Maximum iterations (20) exceeded for all HVAC loops, at ANNUAL, 03/27 08:15 - 08:19
   **   ~~~   ** The solution for one or more of the Air Loop HVAC systems did not appear to converge
   **   ~~~   ** Air System Named = CENTRAL SYSTEM did not converge for mass flow rate
   **   ~~~   ** Check values should be zero. Most Recent values listed first.
   **   ~~~   ** Demand-to-Supply interface mass flow rate check value iteration history trace: 7.797256E-002,7.797256E-002,7.797256E-002,7.797256E-002,7.797256E-002,7.797256E-002,7.797256E-002,7.797256E-002,7.797256E-002,7.797256E-002,
   **   ~~~   ** Supply-to-demand interface deck 1 mass flow rate check value iteration history trace: 7.797256E-002,7.797256E-002,7.797256E-002,7.797256E-002,7.797256E-002,7.797256E-002,7.797256E-002,7.797256E-002,7.797256E-002,7.797256E-002,
   **   ~~~   ** Air System Named = CENTRAL SYSTEM did not converge for energy
   **   ~~~   ** Check values should be zero. Most Recent values listed first.
   **   ~~~   ** Demand-to-Supply interface energy check value iteration history trace: 1541.992334,1541.992334,1541.992334,1541.992334,1541.992334,1541.992334,1541.992334,1541.992334,1541.992334,1541.992334,
   **   ~~~   ** Supply-to-demand interface deck 1 energy check value iteration history trace: 2692.362655,2692.362655,2692.362655,2692.362655,2692.362655,2692.362655,2692.362655,2692.362654,2692.362654,2692.362654,
   ** Warning ** SimHVAC: Maximum iterations (20) exceeded for all HVAC loops, at ANNUAL, 03/28 06:45 - 07:00
   **   ~~~   ** The solution for one or more of the Air Loop HVAC systems did not appear to converge
   **   ~~~   ** Air System Named = CENTRAL SYSTEM did not converge for mass flow rate
   **   ~~~   ** Check values should be zero. Most Recent values listed first.
   **   ~~~   ** Demand-to-Supply interface mass flow rate check value iteration history trace: 7.052139E-002,7.052139E-002,7.052139E-002,7.052139E-002,7.052139E-002,7.052139E-002,7.052139E-002,7.052139E-002,7.052139E-002,7.052139E-002,
   **   ~~~   ** Supply-to-demand interface deck 1 mass flow rate check value iteration history trace: 7.052139E-002,7.052139E-002,7.052139E-002,7.052139E-002,7.052139E-002,7.052139E-002,7.052139E-002,7.052139E-002,7.052139E-002,7.052139E-002,
   **   ~~~   ** Air System Named = CENTRAL SYSTEM did not converge for energy
   **   ~~~   ** Check values should be zero. Most Recent values listed first.
   **   ~~~   ** Demand-to-Supply interface energy check value iteration history trace: 1395.058141,1395.058141,1395.058140,1395.058140,1395.058140,1395.058140,1395.058140,1395.058140,1395.058140,1395.058140,
   **   ~~~   ** Supply-to-demand interface deck 1 energy check value iteration history trace: 2411.483342,2411.483342,2411.483342,2411.483342,2411.483342,2411.483342,2411.483342,2411.483342,2411.483342,2411.483341,
   ** Warning ** SimHVAC: Maximum iterations (20) exceeded for all HVAC loops, at ANNUAL, 04/06 07:18 - 07:21
   **   ~~~   ** The solution for one or more of the Air Loop HVAC systems did not appear to converge
   **   ~~~   ** Air System Named = CENTRAL SYSTEM did not converge for mass flow rate
   **   ~~~   ** Check values should be zero. Most Recent values listed first.
   **   ~~~   ** Demand-to-Supply interface mass flow rate check value iteration history trace: 9.763981E-002,9.763981E-002,9.763981E-002,9.763981E-002,9.763981E-002,9.763981E-002,9.763981E-002,9.763981E-002,9.763981E-002,9.763981E-002,
   **   ~~~   ** Supply-to-demand interface deck 1 mass flow rate check value iteration history trace: 9.763981E-002,9.763981E-002,9.763981E-002,9.763981E-002,9.763981E-002,9.763981E-002,9.763981E-002,9.763981E-002,9.763981E-002,9.763981E-002,
   **   ~~~   ** Air System Named = CENTRAL SYSTEM did not converge for energy
   **   ~~~   ** Check values should be zero. Most Recent values listed first.
   **   ~~~   ** Demand-to-Supply interface energy check value iteration history trace: 1934.881154,1934.881154,1934.881154,1934.881153,1934.881153,1934.881153,1934.881153,1934.881153,1934.881153,1934.881153,
   **   ~~~   ** Supply-to-demand interface deck 1 energy check value iteration history trace: 2963.148542,2963.148542,2963.148542,2963.148542,2963.148542,2963.148542,2963.148541,2963.148541,2963.148541,2963.148541,
   ** Warning ** SimHVAC: Maximum iterations (20) exceeded for all HVAC loops, at ANNUAL, 04/27 08:38 - 08:45
   **   ~~~   ** The solution for one or more of the Air Loop HVAC systems did not appear to converge
   **   ~~~   ** Air System Named = CENTRAL SYSTEM did not converge for mass flow rate
   **   ~~~   ** Check values should be zero. Most Recent values listed first.
   **   ~~~   ** Demand-to-Supply interface mass flow rate check value iteration history trace: 6.146975E-002,6.146975E-002,6.146975E-002,6.146975E-002,6.146975E-002,6.146975E-002,6.146975E-002,6.146975E-002,6.146975E-002,6.146975E-002,
   **   ~~~   ** Supply-to-demand interface deck 1 mass flow rate check value iteration history trace: 6.146975E-002,6.146975E-002,6.146975E-002,6.146975E-002,6.146975E-002,6.146975E-002,6.146975E-002,6.146975E-002,6.146975E-002,6.146975E-002,
   **   ~~~   ** Air System Named = CENTRAL SYSTEM did not converge for energy
   **   ~~~   ** Check values should be zero. Most Recent values listed first.
   **   ~~~   ** Demand-to-Supply interface energy check value iteration history trace: 1213.872403,1213.872403,1213.872403,1213.872403,1213.872403,1213.872403,1213.872403,1213.872403,1213.872403,1213.872403,
   **   ~~~   ** Supply-to-demand interface deck 1 energy check value iteration history trace: 2134.160164,2134.160164,2134.160164,2134.160163,2134.160163,2134.160163,2134.160163,2134.160163,2134.160163,2134.160163,
   ** Warning ** SimHVAC: Maximum iterations (20) exceeded for all HVAC loops, at ANNUAL, 05/18 08:20 - 08:25
   **   ~~~   ** The solution for one or more of the Air Loop HVAC systems did not appear to converge
   **   ~~~   ** Air System Named = CENTRAL SYSTEM did not converge for mass flow rate
   **   ~~~   ** Check values should be zero. Most Recent values listed first.
   **   ~~~   ** Demand-to-Supply interface mass flow rate check value iteration history trace: 0.222216,0.222216,0.222216,0.222216,0.222216,0.222216,0.222216,0.222216,0.222216,0.222216,
   **   ~~~   ** Supply-to-demand interface deck 1 mass flow rate check value iteration history trace: 0.222216,0.222216,0.222216,0.222216,0.222216,0.222216,0.222216,0.222216,0.222216,0.222216,
   **   ~~~   ** Air System Named = CENTRAL SYSTEM did not converge for energy
   **   ~~~   ** Check values should be zero. Most Recent values listed first.
   **   ~~~   ** Demand-to-Supply interface energy check value iteration history trace: 5290.287376,5290.287376,5290.287376,5290.287377,5290.287377,5290.287377,5290.287378,5290.287378,5290.287378,5290.287379,
   **   ~~~   ** Supply-to-demand interface deck 1 energy check value iteration history trace: 2710.339768,2710.339768,2710.339768,2710.339769,2710.339769,2710.339769,2710.339769,2710.339769,2710.339769,2710.339770,
   ************* Simulation Error Summary *************
   ** Warning ** The following Report Variables were requested but not generated -- check.rdd file
   **   ~~~   ** Either the IDF did not contain these elements, the variable name is misspelled,
   **   ~~~   ** or the requested variable is an advanced output which requires Output : Diagnostics, DisplayAdvancedReportVariables;
   ************* Key=*, VarName=BASEBOARD TOTAL HEATING ENERGY, Frequency=
   ************* Key=*, VarName=WATER HEATER NATURALGAS ENERGY, Frequency=
   ************* Key=*, VarName=COOLING COIL TOTAL HEATING ENERGY, Frequency=
   ************* There are 34 unused schedules in input.
   ************* There are 388 unused week schedules in input.
   ************* There are 396 unused day schedules in input.
   ************* Use Output:Diagnostics,DisplayUnusedSchedules; to see them.
   *************
   ************* ===== Recurring Error Summary =====
   ************* The following recurring error messages occurred.
   *************
   *************  ** Warning ** "TOTAL HOT WATER LOAD" - Target water temperature should be less than or equal to the hot water temperature error continues...
   *************  **   ~~~   **   This error occurred 127387 total times;
   *************  **   ~~~   **   during Warmup 0 times;
   *************  **   ~~~   **   during Sizing 0 times.
   *************  **   ~~~   **   Max=11.79479  Min=3.591695E-005
   *************
   *************  ** Warning ** SimHVAC: Exceeding Maximum iterations for all HVAC loops, during ANNUAL continues
   *************  **   ~~~   **   This error occurred 12 total times;
   *************  **   ~~~   **   during Warmup 0 times;
   *************  **   ~~~   **   during Sizing 0 times.
   *************
   *************
   ************* ===== Final Error Summary =====
   ************* The following error categories occurred.  Consider correcting or noting.
   ************* Nominally Unused Constructions
   ************* ..The nominally unused constructions warning is provided to alert you to potential conditions that can cause
   ************* ..extra time during simulation. Each construction is calculated by the algorithm indicated in the HeatBalanceAlgorithm
   ************* ..object. You may remove the constructions indicated (when you use the DisplayExtraWarnings option).
   *************
   ************* EnergyPlus Warmup Error Summary. During Warmup: 1 Warning; 0 Severe Errors.
   ************* EnergyPlus Sizing Error Summary. During Sizing: 4 Warning; 0 Severe Errors.
   ************* EnergyPlus Completed Successfully-- 127431 Warning; 0 Severe Errors; Elapsed Time=00hr 01min 31.95sec
