Program Version,EnergyPlus, Version 22.2.0-c249759bad, YMD=2023.09.01 20:01,
   ************* Beginning Zone Sizing Calculations
   ** Warning ** ProcessScheduleInput: Schedule:Constant="ALWAYS ON DISCRETE", Schedule Type Limits Name="ONOFF" not found -- will not be validated
   ** Warning ** Foundation:Kiva="KIVA FOUNDATION", no Interior Horizontal Insulation Material Name defined
   **   ~~~   ** Interior Horizontal Insulation Depth will not be used.
   ** Warning ** CheckUsedConstructions: There are 15 nominally unused constructions in input.
   **   ~~~   ** Each Unused construction is shown.
   ************* Construction=INTERIOR FLOOR
   ************* Construction=INTERIOR WINDOW
   ************* Construction=EXTERIOR DOOR
   ************* Construction=INTERIOR DOOR
   ************* Construction=GABLE CONSTRUCTION
   ************* Construction=CRAWL_FLOOR
   ************* Construction=INSULATED PIPE
   ************* Construction=PLAIN PIPE
   ************* Construction=TDD PIPE
   ************* Construction=TDD DOME
   ************* Construction=TDD DIFFUSER
   ************* Construction=CRAWL WALL
   ************* Construction=CEILING-FLOOR-LAYER
   ************* Construction=SLAB CONSTRUCTION W FULL R10 INSULATION
   ************* Construction=SLAB CONSTRUCTION W FULL R5 INSULATION
   ** Warning ** GetDXCoils: Coil:Heating:DX:SingleSpeed="DX_HEATING_COIL" curve values
   **   ~~~   ** ... Defrost Energy Input Ratio Function of Temperature Curve Name = DEFROSTEIR output is not equal to 1.0 (+ or - 10%) at rated conditions.
   **   ~~~   ** ... Curve output at rated conditions = 0.152
   ************* Beginning System Sizing Calculations
   ************* Beginning Plant Sizing Calculations
   ** Warning ** Coil:WaterHeating:AirToWaterHeatPump:Wrapped "HEAT PUMP WATER HEATER EVAPORATOR": Rated air volume flow rate per watt of rated total water heating capacity is out of range
   **   ~~~   ** Min Rated Vol Flow Per Watt=[4.027E-005], Rated Vol Flow Per Watt=[1.510E-004], Max Rated Vol Flow Per Watt=[8.056E-005]. See Input-Output Reference Manual for valid range.
   ************* SizeFan: : Potential issue with equipment sizing for Fan:OnOff HEAT PUMP WATER HEATER FAN
   **   ~~~   ** User-Specified Maximum Flow Rate [m3/s] = 0.22653
   **   ~~~   ** differs from Design Size Maximum Flow Rate [m3/s] = 7.55250E-002
   **   ~~~   ** This may, or may not, indicate mismatched component sizes.
   **   ~~~   ** Verify that the value entered is intended and is consistent with other components.
   ** Warning ** Water heater = WATER HEATER TANK:  Recovery Efficiency and Energy Factor could not be calculated during the test for standard ratings
   **   ~~~   ** Setpoint was never recovered and/or heater never turned on
   ** Warning ** Check input. Pump nominal power or motor efficiency is set to 0, for pump=MAINS PRESSURE
   ** Warning ** Output:Meter: invalid Key Name="ELECTRIC_RANGE:INTERIOREQUIPMENT:ELECTRICITY" - not found.
   ** Warning ** Output:Meter: invalid Key Name="ELECTRIC_DRYER:INTERIOREQUIPMENT:ELECTRICITY" - not found.
   ** Warning ** Output:Meter: invalid Key Name="HEATRECOVERY:ELECTRICITY" - not found.
   ** Warning ** Output:Meter: invalid Key Name="HEATING:NATURALGAS" - not found.
   ** Warning ** Output:Meter: invalid Key Name="WATERSYSTEMS:NATURALGAS" - not found.
   ** Warning ** Output:Meter: invalid Key Name="PROPANE:FACILITY" - not found.
   ** Warning ** Output:Meter: invalid Key Name="HEATING:PROPANE" - not found.
   ************* Testing Individual Branch Integrity
   ************* All Branches passed integrity testing
   ************* Testing Individual Supply Air Path Integrity
   ************* All Supply Air Paths passed integrity testing
   ************* Testing Individual Return Air Path Integrity
   ************* All Return Air Paths passed integrity testing
   ************* No node connection errors were found.
   ************* Beginning Simulation
   ** Warning ** AirflowNetwork::Solver::validate_distribution: Heat pump water heater is simulated along with an AirflowNetwork but is not included in the AirflowNetwork.
   ** Warning ** CalcEquipmentFlowRates: "TOTAL HOT WATER LOAD" - Target water temperature is greater than the hot water temperature by (4.83 C)
   **   ~~~   **  Environment=EXTREME_WINTER, at Simulation time=01/27 07:00 - 07:15
   **   ~~~   ** ...target water temperature     = 53.33 C
   **   ~~~   ** ...hot water temperature        = 48.51 C
   **   ~~~   ** ...Target water temperature should be less than or equal to the hot water temperature. Verify temperature setpoints and schedules.
   ** Warning ** SimHVAC: Maximum iterations (20) exceeded for all HVAC loops, at EXTREME_WINTER, 02/01 09:00 - 09:02
   **   ~~~   ** The solution for one or more of the Air Loop HVAC systems did not appear to converge
   **   ~~~   ** Air System Named = CENTRAL SYSTEM did not converge for mass flow rate
   **   ~~~   ** Check values should be zero. Most Recent values listed first.
   **   ~~~   ** Demand-to-Supply interface mass flow rate check value iteration history trace: 7.456865E-002,7.456865E-002,7.456865E-002,7.456865E-002,7.456865E-002,7.456865E-002,7.456865E-002,7.456865E-002,7.456865E-002,7.456865E-002,
   **   ~~~   ** Supply-to-demand interface deck 1 mass flow rate check value iteration history trace: 7.456865E-002,7.456865E-002,7.456865E-002,7.456865E-002,7.456865E-002,7.456865E-002,7.456865E-002,7.456865E-002,7.456865E-002,7.456865E-002,
   **   ~~~   ** Air System Named = CENTRAL SYSTEM did not converge for energy
   **   ~~~   ** Check values should be zero. Most Recent values listed first.
   **   ~~~   ** Demand-to-Supply interface energy check value iteration history trace: 1477.655274,1477.655274,1477.655274,1477.655273,1477.655273,1477.655273,1477.655273,1477.655273,1477.655273,1477.655273,
   **   ~~~   ** Supply-to-demand interface deck 1 energy check value iteration history trace: 2553.508854,2553.508853,2553.508853,2553.508853,2553.508853,2553.508853,2553.508853,2553.508853,2553.508853,2553.508853,
   ** Warning ** SimHVAC: Maximum iterations (20) exceeded for all HVAC loops, at ANNUAL, 01/08 16:45 - 17:00
   **   ~~~   ** The solution for one or more of the Air Loop HVAC systems did not appear to converge
   **   ~~~   ** Air System Named = CENTRAL SYSTEM did not converge for mass flow rate
   **   ~~~   ** Check values should be zero. Most Recent values listed first.
   **   ~~~   ** Demand-to-Supply interface mass flow rate check value iteration history trace: 8.463897E-002,8.463897E-002,8.463897E-002,8.463897E-002,8.463897E-002,8.463897E-002,8.463897E-002,8.463897E-002,8.463897E-002,8.463897E-002,
   **   ~~~   ** Supply-to-demand interface deck 1 mass flow rate check value iteration history trace: 8.463897E-002,8.463897E-002,8.463897E-002,8.463897E-002,8.463897E-002,8.463897E-002,8.463897E-002,8.463897E-002,8.463897E-002,8.463897E-002,
   **   ~~~   ** Air System Named = CENTRAL SYSTEM did not converge for energy
   **   ~~~   ** Check values should be zero. Most Recent values listed first.
   **   ~~~   ** Demand-to-Supply interface energy check value iteration history trace: 1664.079751,1664.079751,1664.079751,1664.079751,1664.079751,1664.079751,1664.079751,1664.079751,1664.079751,1664.079751,
   **   ~~~   ** Supply-to-demand interface deck 1 energy check value iteration history trace: 2531.856799,2531.856799,2531.856799,2531.856799,2531.856799,2531.856799,2531.856798,2531.856798,2531.856798,2531.856798,
   ** Warning ** SimHVAC: Maximum iterations (20) exceeded for all HVAC loops, at ANNUAL, 01/10 09:00 - 09:15
   **   ~~~   ** The solution for one or more of the Air Loop HVAC systems did not appear to converge
   **   ~~~   ** Air System Named = CENTRAL SYSTEM did not converge for mass flow rate
   **   ~~~   ** Check values should be zero. Most Recent values listed first.
   **   ~~~   ** Demand-to-Supply interface mass flow rate check value iteration history trace: 7.770262E-002,7.770262E-002,7.770262E-002,7.770262E-002,7.770262E-002,7.770262E-002,7.770262E-002,7.770262E-002,7.770262E-002,7.770262E-002,
   **   ~~~   ** Supply-to-demand interface deck 1 mass flow rate check value iteration history trace: 7.770262E-002,7.770262E-002,7.770262E-002,7.770262E-002,7.770262E-002,7.770262E-002,7.770262E-002,7.770262E-002,7.770262E-002,7.770262E-002,
   **   ~~~   ** Air System Named = CENTRAL SYSTEM did not converge for energy
   **   ~~~   ** Check values should be zero. Most Recent values listed first.
   **   ~~~   ** Demand-to-Supply interface energy check value iteration history trace: 1539.732181,1539.732181,1539.732181,1539.732181,1539.732181,1539.732181,1539.732181,1539.732181,1539.732181,1539.732181,
   **   ~~~   ** Supply-to-demand interface deck 1 energy check value iteration history trace: 2615.740173,2615.740173,2615.740173,2615.740173,2615.740173,2615.740172,2615.740172,2615.740172,2615.740172,2615.740172,
   ** Warning ** SimHVAC: Maximum iterations (20) exceeded for all HVAC loops, at ANNUAL, 01/14 05:15 - 05:22
   **   ~~~   ** The solution for one or more of the Air Loop HVAC systems did not appear to converge
   **   ~~~   ** Air System Named = CENTRAL SYSTEM did not converge for mass flow rate
   **   ~~~   ** Check values should be zero. Most Recent values listed first.
   **   ~~~   ** Demand-to-Supply interface mass flow rate check value iteration history trace: 4.628213E-002,4.628213E-002,4.628213E-002,4.628213E-002,4.628213E-002,4.628213E-002,4.628213E-002,4.628213E-002,4.628213E-002,4.628213E-002,
   **   ~~~   ** Supply-to-demand interface deck 1 mass flow rate check value iteration history trace: 4.628213E-002,4.628213E-002,4.628213E-002,4.628213E-002,4.628213E-002,4.628213E-002,4.628213E-002,4.628213E-002,4.628213E-002,4.628213E-002,
   **   ~~~   ** Air System Named = CENTRAL SYSTEM did not converge for energy
   **   ~~~   ** Check values should be zero. Most Recent values listed first.
   **   ~~~   ** Demand-to-Supply interface energy check value iteration history trace: 927.253165,927.253165,927.253165,927.253165,927.253165,927.253165,927.253165,927.253165,927.253165,927.253165,
   **   ~~~   ** Supply-to-demand interface deck 1 energy check value iteration history trace: 1613.562010,1613.562010,1613.562010,1613.562010,1613.562010,1613.562010,1613.562010,1613.562010,1613.562010,1613.562010,
   ** Warning ** SimHVAC: Maximum iterations (20) exceeded for all HVAC loops, at ANNUAL, 01/18 08:35 - 08:40
   **   ~~~   ** The solution for one or more of the Air Loop HVAC systems did not appear to converge
   **   ~~~   ** Air System Named = CENTRAL SYSTEM did not converge for mass flow rate
   **   ~~~   ** Check values should be zero. Most Recent values listed first.
   **   ~~~   ** Demand-to-Supply interface mass flow rate check value iteration history trace: 5.778598E-002,5.778598E-002,5.778598E-002,5.778598E-002,5.778598E-002,5.778598E-002,5.778598E-002,5.778598E-002,5.778598E-002,5.778598E-002,
   **   ~~~   ** Supply-to-demand interface deck 1 mass flow rate check value iteration history trace: 5.778598E-002,5.778598E-002,5.778598E-002,5.778598E-002,5.778598E-002,5.778598E-002,5.778598E-002,5.778598E-002,5.778598E-002,5.778598E-002,
   **   ~~~   ** Air System Named = CENTRAL SYSTEM did not converge for energy
   **   ~~~   ** Check values should be zero. Most Recent values listed first.
   **   ~~~   ** Demand-to-Supply interface energy check value iteration history trace: 1142.234192,1142.234192,1142.234192,1142.234192,1142.234192,1142.234192,1142.234192,1142.234192,1142.234192,1142.234192,
   **   ~~~   ** Supply-to-demand interface deck 1 energy check value iteration history trace: 2002.488794,2002.488794,2002.488794,2002.488794,2002.488794,2002.488794,2002.488794,2002.488793,2002.488793,2002.488793,
   ** Warning ** SimHVAC: Maximum iterations (20) exceeded for all HVAC loops, at ANNUAL, 01/22 09:51 - 09:54
   **   ~~~   ** The solution for one or more of the Air Loop HVAC systems did not appear to converge
   **   ~~~   ** Air System Named = CENTRAL SYSTEM did not converge for mass flow rate
   **   ~~~   ** Check values should be zero. Most Recent values listed first.
   **   ~~~   ** Demand-to-Supply interface mass flow rate check value iteration history trace: 5.560755E-002,5.560755E-002,5.560755E-002,5.560755E-002,5.560755E-002,5.560755E-002,5.560755E-002,5.560755E-002,5.560755E-002,5.560755E-002,
   **   ~~~   ** Supply-to-demand interface deck 1 mass flow rate check value iteration history trace: 5.560755E-002,5.560755E-002,5.560755E-002,5.560755E-002,5.560755E-002,5.560755E-002,5.560755E-002,5.560755E-002,5.560755E-002,5.560755E-002,
   **   ~~~   ** Air System Named = CENTRAL SYSTEM did not converge for energy
   **   ~~~   ** Check values should be zero. Most Recent values listed first.
   **   ~~~   ** Demand-to-Supply interface energy check value iteration history trace: 1097.015857,1097.015857,1097.015857,1097.015857,1097.015857,1097.015857,1097.015857,1097.015857,1097.015857,1097.015857,
   **   ~~~   ** Supply-to-demand interface deck 1 energy check value iteration history trace: 1974.024034,1974.024034,1974.024034,1974.024034,1974.024034,1974.024034,1974.024034,1974.024034,1974.024034,1974.024034,
   ** Warning ** SimHVAC: Maximum iterations (20) exceeded for all HVAC loops, at ANNUAL, 02/05 10:48 - 10:51
   **   ~~~   ** The solution for one or more of the Air Loop HVAC systems did not appear to converge
   **   ~~~   ** Air System Named = CENTRAL SYSTEM did not converge for mass flow rate
   **   ~~~   ** Check values should be zero. Most Recent values listed first.
   **   ~~~   ** Demand-to-Supply interface mass flow rate check value iteration history trace: 5.433126E-002,5.433126E-002,5.433126E-002,5.433126E-002,5.433126E-002,5.433126E-002,5.433126E-002,5.433126E-002,5.433126E-002,5.433126E-002,
   **   ~~~   ** Supply-to-demand interface deck 1 mass flow rate check value iteration history trace: 5.433126E-002,5.433126E-002,5.433126E-002,5.433126E-002,5.433126E-002,5.433126E-002,5.433126E-002,5.433126E-002,5.433126E-002,5.433126E-002,
   **   ~~~   ** Air System Named = CENTRAL SYSTEM did not converge for energy
   **   ~~~   ** Check values should be zero. Most Recent values listed first.
   **   ~~~   ** Demand-to-Supply interface energy check value iteration history trace: 1072.433608,1072.433608,1072.433608,1072.433608,1072.433608,1072.433608,1072.433608,1072.433608,1072.433608,1072.433608,
   **   ~~~   ** Supply-to-demand interface deck 1 energy check value iteration history trace: 1965.422234,1965.422234,1965.422233,1965.422233,1965.422233,1965.422233,1965.422233,1965.422233,1965.422233,1965.422233,
   ** Warning ** SimHVAC: Maximum iterations (20) exceeded for all HVAC loops, at ANNUAL, 02/17 11:04 - 11:08
   **   ~~~   ** The solution for one or more of the Air Loop HVAC systems did not appear to converge
   **   ~~~   ** Air System Named = CENTRAL SYSTEM did not converge for mass flow rate
   **   ~~~   ** Check values should be zero. Most Recent values listed first.
   **   ~~~   ** Demand-to-Supply interface mass flow rate check value iteration history trace: 7.111841E-002,7.111841E-002,7.111841E-002,7.111841E-002,7.111841E-002,7.111841E-002,7.111841E-002,7.111841E-002,7.111841E-002,7.111841E-002,
   **   ~~~   ** Supply-to-demand interface deck 1 mass flow rate check value iteration history trace: 7.111841E-002,7.111841E-002,7.111841E-002,7.111841E-002,7.111841E-002,7.111841E-002,7.111841E-002,7.111841E-002,7.111841E-002,7.111841E-002,
   **   ~~~   ** Air System Named = CENTRAL SYSTEM did not converge for energy
   **   ~~~   ** Check values should be zero. Most Recent values listed first.
   **   ~~~   ** Demand-to-Supply interface energy check value iteration history trace: 1400.310011,1400.310011,1400.310011,1400.310011,1400.310011,1400.310011,1400.310011,1400.310011,1400.310010,1400.310010,
   **   ~~~   ** Supply-to-demand interface deck 1 energy check value iteration history trace: 2371.817380,2371.817380,2371.817380,2371.817380,2371.817380,2371.817380,2371.817380,2371.817380,2371.817380,2371.817379,
   ** Warning ** SimHVAC: Maximum iterations (20) exceeded for all HVAC loops, at ANNUAL, 03/12 08:00 - 08:15
   **   ~~~   ** The solution for one or more of the Air Loop HVAC systems did not appear to converge
   **   ~~~   ** Air System Named = CENTRAL SYSTEM did not converge for mass flow rate
   **   ~~~   ** Check values should be zero. Most Recent values listed first.
   **   ~~~   ** Demand-to-Supply interface mass flow rate check value iteration history trace: 0.112299,0.112299,0.112299,0.112299,0.112299,0.112299,0.112299,0.112299,0.112299,0.112299,
   **   ~~~   ** Supply-to-demand interface deck 1 mass flow rate check value iteration history trace: 0.112299,0.112299,0.112299,0.112299,0.112299,0.112299,0.112299,0.112299,0.112299,0.112299,
   **   ~~~   ** Air System Named = CENTRAL SYSTEM did not converge for energy
   **   ~~~   ** Check values should be zero. Most Recent values listed first.
   **   ~~~   ** Demand-to-Supply interface energy check value iteration history trace: 2682.331223,2682.331223,2682.331224,2682.331224,2682.331224,2682.331225,2682.331225,2682.331226,2682.331226,2682.331226,
   **   ~~~   ** Supply-to-demand interface deck 1 energy check value iteration history trace: 1485.236255,1485.236255,1485.236255,1485.236255,1485.236256,1485.236256,1485.236256,1485.236256,1485.236256,1485.236257,
   ** Warning ** SimHVAC: Maximum iterations (20) exceeded for all HVAC loops, at ANNUAL, 03/12 22:45 - 23:00
   **   ~~~   ** The solution for one or more of the Air Loop HVAC systems did not appear to converge
   **   ~~~   ** Air System Named = CENTRAL SYSTEM did not converge for mass flow rate
   **   ~~~   ** Check values should be zero. Most Recent values listed first.
   **   ~~~   ** Demand-to-Supply interface mass flow rate check value iteration history trace: 8.308865E-002,8.308865E-002,8.308865E-002,8.308865E-002,8.308865E-002,8.308865E-002,8.308865E-002,8.308865E-002,8.308865E-002,8.308865E-002,
   **   ~~~   ** Supply-to-demand interface deck 1 mass flow rate check value iteration history trace: 8.308865E-002,8.308865E-002,8.308865E-002,8.308865E-002,8.308865E-002,8.308865E-002,8.308865E-002,8.308865E-002,8.308865E-002,8.308865E-002,
   **   ~~~   ** Air System Named = CENTRAL SYSTEM did not converge for energy
   **   ~~~   ** Check values should be zero. Most Recent values listed first.
   **   ~~~   ** Demand-to-Supply interface energy check value iteration history trace: 2045.191543,2045.191543,2045.191544,2045.191544,2045.191545,2045.191545,2045.191546,2045.191547,2045.191547,2045.191548,
   **   ~~~   ** Supply-to-demand interface deck 1 energy check value iteration history trace: 1022.651698,1022.651699,1022.651699,1022.651699,1022.651699,1022.651700,1022.651700,1022.651700,1022.651700,1022.651701,
   ** Warning ** SimHVAC: Maximum iterations (20) exceeded for all HVAC loops, at ANNUAL, 03/14 12:09 - 12:11
   **   ~~~   ** The solution for one or more of the Air Loop HVAC systems did not appear to converge
   **   ~~~   ** Air System Named = CENTRAL SYSTEM did not converge for mass flow rate
   **   ~~~   ** Check values should be zero. Most Recent values listed first.
   **   ~~~   ** Demand-to-Supply interface mass flow rate check value iteration history trace: 5.923899E-002,5.923900E-002,5.923900E-002,5.923900E-002,5.923900E-002,5.923900E-002,5.923900E-002,5.923900E-002,5.923900E-002,5.923900E-002,
   **   ~~~   ** Supply-to-demand interface deck 1 mass flow rate check value iteration history trace: 5.923899E-002,5.923900E-002,5.923900E-002,5.923900E-002,5.923900E-002,5.923900E-002,5.923900E-002,5.923900E-002,5.923900E-002,5.923900E-002,
   **   ~~~   ** Air System Named = CENTRAL SYSTEM did not converge for energy
   **   ~~~   ** Check values should be zero. Most Recent values listed first.
   **   ~~~   ** Demand-to-Supply interface energy check value iteration history trace: 1391.102830,1391.102830,1391.102831,1391.102831,1391.102831,1391.102832,1391.102832,1391.102832,1391.102833,1391.102833,
   **   ~~~   ** Supply-to-demand interface deck 1 energy check value iteration history trace: 747.372207,747.372207,747.372207,747.372207,747.372207,747.372208,747.372208,747.372208,747.372208,747.372208,
   ** Warning ** SimHVAC: Maximum iterations (20) exceeded for all HVAC loops, at ANNUAL, 03/15 08:23 - 08:24
   **   ~~~   ** The solution for one or more of the Air Loop HVAC systems did not appear to converge
   **   ~~~   ** Air System Named = CENTRAL SYSTEM did not converge for mass flow rate
   **   ~~~   ** Check values should be zero. Most Recent values listed first.
   **   ~~~   ** Demand-to-Supply interface mass flow rate check value iteration history trace: 0.144128,0.144128,0.144128,0.144128,0.144128,0.144128,0.144128,0.144128,0.144128,0.144128,
   **   ~~~   ** Supply-to-demand interface deck 1 mass flow rate check value iteration history trace: 0.144128,0.144128,0.144128,0.144128,0.144128,0.144128,0.144128,0.144128,0.144128,0.144128,
   **   ~~~   ** Air System Named = CENTRAL SYSTEM did not converge for energy
   **   ~~~   ** Check values should be zero. Most Recent values listed first.
   **   ~~~   ** Demand-to-Supply interface energy check value iteration history trace: 3397.779495,3397.779496,3397.779496,3397.779497,3397.779498,3397.779499,3397.779500,3397.779501,3397.779502,3397.779503,
   **   ~~~   ** Supply-to-demand interface deck 1 energy check value iteration history trace: 1919.605176,1919.605176,1919.605177,1919.605177,1919.605178,1919.605178,1919.605179,1919.605179,1919.605180,1919.605180,
   ** Warning ** SimHVAC: Maximum iterations (20) exceeded for all HVAC loops, at ANNUAL, 03/15 08:36 - 08:38
   **   ~~~   ** The solution for one or more of the Air Loop HVAC systems did not appear to converge
   **   ~~~   ** Air System Named = CENTRAL SYSTEM did not converge for mass flow rate
   **   ~~~   ** Check values should be zero. Most Recent values listed first.
   **   ~~~   ** Demand-to-Supply interface mass flow rate check value iteration history trace: 0.191448,0.191448,0.191448,0.191448,0.191448,0.191448,0.191448,0.191448,0.191448,0.191448,
   **   ~~~   ** Supply-to-demand interface deck 1 mass flow rate check value iteration history trace: 0.191448,0.191448,0.191448,0.191448,0.191448,0.191448,0.191448,0.191448,0.191448,0.191448,
   **   ~~~   ** Air System Named = CENTRAL SYSTEM did not converge for energy
   **   ~~~   ** Check values should be zero. Most Recent values listed first.
   **   ~~~   ** Demand-to-Supply interface energy check value iteration history trace: 4519.468743,4519.468744,4519.468746,4519.468747,4519.468748,4519.468749,4519.468750,4519.468751,4519.468753,4519.468754,
   **   ~~~   ** Supply-to-demand interface deck 1 energy check value iteration history trace: 2537.289586,2537.289586,2537.289587,2537.289588,2537.289588,2537.289589,2537.289590,2537.289590,2537.289591,2537.289592,
   ** Warning ** SimHVAC: Maximum iterations (20) exceeded for all HVAC loops, at ANNUAL, 03/26 22:53 - 23:00
   **   ~~~   ** The solution for one or more of the Air Loop HVAC systems did not appear to converge
   **   ~~~   ** Air System Named = CENTRAL SYSTEM did not converge for mass flow rate
   **   ~~~   ** Check values should be zero. Most Recent values listed first.
   **   ~~~   ** Demand-to-Supply interface mass flow rate check value iteration history trace: 0.162271,0.162271,0.162271,0.162271,0.162271,0.162271,0.162271,0.162271,0.162271,0.162271,
   **   ~~~   ** Supply-to-demand interface deck 1 mass flow rate check value iteration history trace: 0.162271,0.162271,0.162271,0.162271,0.162271,0.162271,0.162271,0.162271,0.162271,0.162271,
   **   ~~~   ** Air System Named = CENTRAL SYSTEM did not converge for energy
   **   ~~~   ** Check values should be zero. Most Recent values listed first.
   **   ~~~   ** Demand-to-Supply interface energy check value iteration history trace: 4041.990535,4041.990535,4041.990536,4041.990536,4041.990536,4041.990537,4041.990537,4041.990537,4041.990538,4041.990538,
   **   ~~~   ** Supply-to-demand interface deck 1 energy check value iteration history trace: 2084.271403,2084.271403,2084.271404,2084.271404,2084.271404,2084.271404,2084.271404,2084.271404,2084.271405,2084.271405,
   ************* Simulation Error Summary *************
   ** Warning ** The following Report Variables were requested but not generated -- check.rdd file
   **   ~~~   ** Either the IDF did not contain these elements, the variable name is misspelled,
   **   ~~~   ** or the requested variable is an advanced output which requires Output : Diagnostics, DisplayAdvancedReportVariables;
   ************* Key=*, VarName=BASEBOARD TOTAL HEATING ENERGY, Frequency=
   ************* Key=*, VarName=WATER HEATER NATURALGAS ENERGY, Frequency=
   ************* Key=*, VarName=COOLING COIL TOTAL HEATING ENERGY, Frequency=
   ************* There are 34 unused schedules in input.
   ************* There are 388 unused week schedules in input.
   ************* There are 396 unused day schedules in input.
   ************* Use Output:Diagnostics,DisplayUnusedSchedules; to see them.
   *************
   ************* ===== Recurring Error Summary =====
   ************* The following recurring error messages occurred.
   *************
   *************  ** Warning ** "TOTAL HOT WATER LOAD" - Target water temperature should be less than or equal to the hot water temperature error continues...
   *************  **   ~~~   **   This error occurred 187265 total times;
   *************  **   ~~~   **   during Warmup 0 times;
   *************  **   ~~~   **   during Sizing 0 times.
   *************  **   ~~~   **   Max=11.591462  Min=1.557837E-003
   *************
   *************  ** Warning ** SimHVAC: Exceeding Maximum iterations for all HVAC loops, during ANNUAL continues
   *************  **   ~~~   **   This error occurred 7 total times;
   *************  **   ~~~   **   during Warmup 0 times;
   *************  **   ~~~   **   during Sizing 0 times.
   *************
   *************
   ************* ===== Final Error Summary =====
   ************* The following error categories occurred.  Consider correcting or noting.
   ************* Nominally Unused Constructions
   ************* ..The nominally unused constructions warning is provided to alert you to potential conditions that can cause
   ************* ..extra time during simulation. Each construction is calculated by the algorithm indicated in the HeatBalanceAlgorithm
   ************* ..object. You may remove the constructions indicated (when you use the DisplayExtraWarnings option).
   *************
   ************* EnergyPlus Warmup Error Summary. During Warmup: 1 Warning; 0 Severe Errors.
   ************* EnergyPlus Sizing Error Summary. During Sizing: 4 Warning; 0 Severe Errors.
   ************* EnergyPlus Completed Successfully-- 187303 Warning; 0 Severe Errors; Elapsed Time=00hr 01min 46.25sec
