Program Version,EnergyPlus, Version 22.2.0-c249759bad, YMD=2023.09.01 19:49,
   ************* Beginning Zone Sizing Calculations
   ** Warning ** ProcessScheduleInput: Schedule:Constant="ALWAYS ON DISCRETE", Schedule Type Limits Name="ONOFF" not found -- will not be validated
   ** Warning ** Foundation:Kiva="KIVA FOUNDATION", no Interior Horizontal Insulation Material Name defined
   **   ~~~   ** Interior Horizontal Insulation Depth will not be used.
   ** Warning ** CheckUsedConstructions: There are 15 nominally unused constructions in input.
   **   ~~~   ** Each Unused construction is shown.
   ************* Construction=INTERIOR FLOOR
   ************* Construction=INTERIOR WINDOW
   ************* Construction=EXTERIOR DOOR
   ************* Construction=INTERIOR DOOR
   ************* Construction=GABLE CONSTRUCTION
   ************* Construction=CRAWL_FLOOR
   ************* Construction=INSULATED PIPE
   ************* Construction=PLAIN PIPE
   ************* Construction=TDD PIPE
   ************* Construction=TDD DOME
   ************* Construction=TDD DIFFUSER
   ************* Construction=CRAWL WALL
   ************* Construction=CEILING-FLOOR-LAYER
   ************* Construction=SLAB CONSTRUCTION W FULL R10 INSULATION
   ************* Construction=SLAB CONSTRUCTION W FULL R5 INSULATION
   ** Warning ** GetDXCoils: Coil:Heating:DX:SingleSpeed="DX_HEATING_COIL" curve values
   **   ~~~   ** ... Defrost Energy Input Ratio Function of Temperature Curve Name = DEFROSTEIR output is not equal to 1.0 (+ or - 10%) at rated conditions.
   **   ~~~   ** ... Curve output at rated conditions = 0.152
   ************* Beginning System Sizing Calculations
   ************* Beginning Plant Sizing Calculations
   ** Warning ** SizeDXCoil Coil:Cooling:DX:SingleSpeed DX_COOLING_COIL
   **   ~~~   ** ...Gross Rated Total Cooling Capacity [W] will be limited by the maximum rated volume flow per rated total capacity ratio.
   **   ~~~   ** ...DX coil volume flow rate ( m3/s ) = 0.433692
   **   ~~~   ** ...Requested capacity ( W ) = 6775.393
   **   ~~~   ** ...Requested flow/capacity ratio ( m3/s/W ) = 6.400E-005
   **   ~~~   ** ...Maximum flow/capacity ratio ( m3/s/W ) = 6.041E-005
   **   ~~~   ** ...Adjusted capacity ( W ) = 7179.145
   ** Warning ** Coil:WaterHeating:AirToWaterHeatPump:Wrapped "HEAT PUMP WATER HEATER EVAPORATOR": Rated air volume flow rate per watt of rated total water heating capacity is out of range
   **   ~~~   ** Min Rated Vol Flow Per Watt=[4.027E-005], Rated Vol Flow Per Watt=[1.510E-004], Max Rated Vol Flow Per Watt=[8.056E-005]. See Input-Output Reference Manual for valid range.
   ************* SizeFan: : Potential issue with equipment sizing for Fan:OnOff HEAT PUMP WATER HEATER FAN
   **   ~~~   ** User-Specified Maximum Flow Rate [m3/s] = 0.22653
   **   ~~~   ** differs from Design Size Maximum Flow Rate [m3/s] = 7.55250E-002
   **   ~~~   ** This may, or may not, indicate mismatched component sizes.
   **   ~~~   ** Verify that the value entered is intended and is consistent with other components.
   ** Warning ** Water heater = WATER HEATER TANK:  Recovery Efficiency and Energy Factor could not be calculated during the test for standard ratings
   **   ~~~   ** Setpoint was never recovered and/or heater never turned on
   ** Warning ** Check input. Pump nominal power or motor efficiency is set to 0, for pump=MAINS PRESSURE
   ** Warning ** Output:Meter: invalid Key Name="ELECTRIC_RANGE:INTERIOREQUIPMENT:ELECTRICITY" - not found.
   ** Warning ** Output:Meter: invalid Key Name="ELECTRIC_DRYER:INTERIOREQUIPMENT:ELECTRICITY" - not found.
   ** Warning ** Output:Meter: invalid Key Name="HEATRECOVERY:ELECTRICITY" - not found.
   ** Warning ** Output:Meter: invalid Key Name="HEATING:NATURALGAS" - not found.
   ** Warning ** Output:Meter: invalid Key Name="WATERSYSTEMS:NATURALGAS" - not found.
   ** Warning ** Output:Meter: invalid Key Name="PROPANE:FACILITY" - not found.
   ** Warning ** Output:Meter: invalid Key Name="HEATING:PROPANE" - not found.
   ************* Testing Individual Branch Integrity
   ************* All Branches passed integrity testing
   ************* Testing Individual Supply Air Path Integrity
   ************* All Supply Air Paths passed integrity testing
   ************* Testing Individual Return Air Path Integrity
   ************* All Return Air Paths passed integrity testing
   ************* No node connection errors were found.
   ************* Beginning Simulation
   ** Warning ** AirflowNetwork::Solver::validate_distribution: Heat pump water heater is simulated along with an AirflowNetwork but is not included in the AirflowNetwork.
   ** Warning ** CalcEquipmentFlowRates: "TOTAL HOT WATER LOAD" - Target water temperature is greater than the hot water temperature by (3.66 C)
   **   ~~~   **  Environment=EXTREME_WINTER, at Simulation time=01/20 06:00 - 06:15
   **   ~~~   ** ...target water temperature     = 53.33 C
   **   ~~~   ** ...hot water temperature        = 49.67 C
   **   ~~~   ** ...Target water temperature should be less than or equal to the hot water temperature. Verify temperature setpoints and schedules.
   ** Warning ** SimHVAC: Maximum iterations (20) exceeded for all HVAC loops, at EXTREME_WINTER, 01/26 13:15 - 13:22
   **   ~~~   ** The solution for one or more of the Air Loop HVAC systems did not appear to converge
   **   ~~~   ** Air System Named = CENTRAL SYSTEM did not converge for mass flow rate
   **   ~~~   ** Check values should be zero. Most Recent values listed first.
   **   ~~~   ** Demand-to-Supply interface mass flow rate check value iteration history trace: 5.954740E-002,5.954740E-002,5.954740E-002,5.954740E-002,5.954740E-002,5.954740E-002,5.954740E-002,5.954740E-002,5.954740E-002,5.954740E-002,
   **   ~~~   ** Supply-to-demand interface deck 1 mass flow rate check value iteration history trace: 5.954740E-002,5.954740E-002,5.954740E-002,5.954740E-002,5.954740E-002,5.954740E-002,5.954740E-002,5.954740E-002,5.954740E-002,5.954740E-002,
   **   ~~~   ** Air System Named = CENTRAL SYSTEM did not converge for energy
   **   ~~~   ** Check values should be zero. Most Recent values listed first.
   **   ~~~   ** Demand-to-Supply interface energy check value iteration history trace: 1180.031862,1180.031862,1180.031862,1180.031862,1180.031862,1180.031862,1180.031862,1180.031862,1180.031862,1180.031862,
   **   ~~~   ** Supply-to-demand interface deck 1 energy check value iteration history trace: 1992.633936,1992.633936,1992.633936,1992.633936,1992.633936,1992.633935,1992.633935,1992.633935,1992.633935,1992.633935,
   ** Warning ** SimHVAC: Maximum iterations (20) exceeded for all HVAC loops, at ANNUAL, 01/03 20:00 - 20:15
   **   ~~~   ** The solution for one or more of the Air Loop HVAC systems did not appear to converge
   **   ~~~   ** Air System Named = CENTRAL SYSTEM did not converge for mass flow rate
   **   ~~~   ** Check values should be zero. Most Recent values listed first.
   **   ~~~   ** Demand-to-Supply interface mass flow rate check value iteration history trace: 4.260915E-002,4.260915E-002,4.260915E-002,4.260915E-002,4.260915E-002,4.260915E-002,4.260915E-002,4.260915E-002,4.260915E-002,4.260915E-002,
   **   ~~~   ** Supply-to-demand interface deck 1 mass flow rate check value iteration history trace: 4.260915E-002,4.260915E-002,4.260915E-002,4.260915E-002,4.260915E-002,4.260915E-002,4.260915E-002,4.260915E-002,4.260915E-002,4.260915E-002,
   **   ~~~   ** Air System Named = CENTRAL SYSTEM did not converge for energy
   **   ~~~   ** Check values should be zero. Most Recent values listed first.
   **   ~~~   ** Demand-to-Supply interface energy check value iteration history trace: 840.854031,840.854031,840.854031,840.854031,840.854031,840.854031,840.854031,840.854031,840.854031,840.854031,
   **   ~~~   ** Supply-to-demand interface deck 1 energy check value iteration history trace: 1242.840741,1242.840741,1242.840740,1242.840740,1242.840740,1242.840740,1242.840740,1242.840740,1242.840740,1242.840740,
   ** Warning ** SimHVAC: Maximum iterations (20) exceeded for all HVAC loops, at ANNUAL, 01/21 12:15 - 12:30
   **   ~~~   ** The solution for one or more of the Air Loop HVAC systems did not appear to converge
   **   ~~~   ** Air System Named = CENTRAL SYSTEM did not converge for mass flow rate
   **   ~~~   ** Check values should be zero. Most Recent values listed first.
   **   ~~~   ** Demand-to-Supply interface mass flow rate check value iteration history trace: 3.270972E-002,3.270972E-002,3.270972E-002,3.270972E-002,3.270972E-002,3.270972E-002,3.270972E-002,3.270972E-002,3.270972E-002,3.270972E-002,
   **   ~~~   ** Supply-to-demand interface deck 1 mass flow rate check value iteration history trace: 3.270972E-002,3.270972E-002,3.270972E-002,3.270972E-002,3.270972E-002,3.270972E-002,3.270972E-002,3.270972E-002,3.270972E-002,3.270972E-002,
   **   ~~~   ** Air System Named = CENTRAL SYSTEM did not converge for energy
   **   ~~~   ** Check values should be zero. Most Recent values listed first.
   **   ~~~   ** Demand-to-Supply interface energy check value iteration history trace: 643.389779,643.389779,643.389779,643.389779,643.389779,643.389779,643.389779,643.389779,643.389779,643.389778,
   **   ~~~   ** Supply-to-demand interface deck 1 energy check value iteration history trace: 990.227627,990.227626,990.227626,990.227626,990.227626,990.227626,990.227626,990.227626,990.227626,990.227626,
   ** Warning ** SimHVAC: Maximum iterations (20) exceeded for all HVAC loops, at ANNUAL, 01/24 19:30 - 19:45
   **   ~~~   ** The solution for one or more of the Air Loop HVAC systems did not appear to converge
   **   ~~~   ** Air System Named = CENTRAL SYSTEM did not converge for mass flow rate
   **   ~~~   ** Check values should be zero. Most Recent values listed first.
   **   ~~~   ** Demand-to-Supply interface mass flow rate check value iteration history trace: 8.227416E-002,8.227416E-002,8.227416E-002,8.227416E-002,8.227416E-002,8.227416E-002,8.227416E-002,8.227416E-002,8.227416E-002,8.227416E-002,
   **   ~~~   ** Supply-to-demand interface deck 1 mass flow rate check value iteration history trace: 8.227416E-002,8.227416E-002,8.227416E-002,8.227416E-002,8.227416E-002,8.227416E-002,8.227416E-002,8.227416E-002,8.227416E-002,8.227416E-002,
   **   ~~~   ** Air System Named = CENTRAL SYSTEM did not converge for energy
   **   ~~~   ** Check values should be zero. Most Recent values listed first.
   **   ~~~   ** Demand-to-Supply interface energy check value iteration history trace: 1627.629016,1627.629016,1627.629016,1627.629016,1627.629016,1627.629016,1627.629016,1627.629016,1627.629016,1627.629015,
   **   ~~~   ** Supply-to-demand interface deck 1 energy check value iteration history trace: 2520.995799,2520.995799,2520.995799,2520.995799,2520.995798,2520.995798,2520.995798,2520.995798,2520.995798,2520.995798,
   ** Warning ** SimHVAC: Maximum iterations (20) exceeded for all HVAC loops, at ANNUAL, 02/06 20:00 - 20:08
   **   ~~~   ** The solution for one or more of the Air Loop HVAC systems did not appear to converge
   **   ~~~   ** Air System Named = CENTRAL SYSTEM did not converge for mass flow rate
   **   ~~~   ** Check values should be zero. Most Recent values listed first.
   **   ~~~   ** Demand-to-Supply interface mass flow rate check value iteration history trace: 7.358305E-002,7.358305E-002,7.358305E-002,7.358305E-002,7.358305E-002,7.358305E-002,7.358305E-002,7.358305E-002,7.358305E-002,7.358305E-002,
   **   ~~~   ** Supply-to-demand interface deck 1 mass flow rate check value iteration history trace: 7.358305E-002,7.358305E-002,7.358305E-002,7.358305E-002,7.358305E-002,7.358305E-002,7.358305E-002,7.358305E-002,7.358305E-002,7.358305E-002,
   **   ~~~   ** Air System Named = CENTRAL SYSTEM did not converge for energy
   **   ~~~   ** Check values should be zero. Most Recent values listed first.
   **   ~~~   ** Demand-to-Supply interface energy check value iteration history trace: 1440.685771,1440.685771,1440.685771,1440.685771,1440.685770,1440.685770,1440.685770,1440.685770,1440.685770,1440.685770,
   **   ~~~   ** Supply-to-demand interface deck 1 energy check value iteration history trace: 2274.785799,2274.785798,2274.785798,2274.785798,2274.785798,2274.785798,2274.785798,2274.785798,2274.785798,2274.785797,
   ** Warning ** SimHVAC: Maximum iterations (20) exceeded for all HVAC loops, at ANNUAL, 02/27 09:00 - 09:15
   **   ~~~   ** The solution for one or more of the Air Loop HVAC systems did not appear to converge
   **   ~~~   ** Air System Named = CENTRAL SYSTEM did not converge for mass flow rate
   **   ~~~   ** Check values should be zero. Most Recent values listed first.
   **   ~~~   ** Demand-to-Supply interface mass flow rate check value iteration history trace: 9.045008E-002,9.045008E-002,9.045008E-002,9.045008E-002,9.045008E-002,9.045008E-002,9.045008E-002,9.045008E-002,9.045008E-002,9.045008E-002,
   **   ~~~   ** Supply-to-demand interface deck 1 mass flow rate check value iteration history trace: 9.045008E-002,9.045008E-002,9.045008E-002,9.045008E-002,9.045008E-002,9.045008E-002,9.045008E-002,9.045008E-002,9.045008E-002,9.045008E-002,
   **   ~~~   ** Air System Named = CENTRAL SYSTEM did not converge for energy
   **   ~~~   ** Check values should be zero. Most Recent values listed first.
   **   ~~~   ** Demand-to-Supply interface energy check value iteration history trace: 1792.354479,1792.354479,1792.354479,1792.354478,1792.354478,1792.354478,1792.354478,1792.354478,1792.354478,1792.354478,
   **   ~~~   ** Supply-to-demand interface deck 1 energy check value iteration history trace: 2807.381263,2807.381263,2807.381263,2807.381262,2807.381262,2807.381262,2807.381262,2807.381262,2807.381262,2807.381261,
   ** Warning ** SimHVAC: Maximum iterations (20) exceeded for all HVAC loops, at ANNUAL, 03/06 08:50 - 08:55
   **   ~~~   ** The solution for one or more of the Air Loop HVAC systems did not appear to converge
   **   ~~~   ** Air System Named = CENTRAL SYSTEM did not converge for mass flow rate
   **   ~~~   ** Check values should be zero. Most Recent values listed first.
   **   ~~~   ** Demand-to-Supply interface mass flow rate check value iteration history trace: 6.719284E-002,6.719284E-002,6.719284E-002,6.719284E-002,6.719284E-002,6.719284E-002,6.719284E-002,6.719284E-002,6.719284E-002,6.719284E-002,
   **   ~~~   ** Supply-to-demand interface deck 1 mass flow rate check value iteration history trace: 6.719284E-002,6.719284E-002,6.719284E-002,6.719284E-002,6.719284E-002,6.719284E-002,6.719284E-002,6.719284E-002,6.719284E-002,6.719284E-002,
   **   ~~~   ** Air System Named = CENTRAL SYSTEM did not converge for energy
   **   ~~~   ** Check values should be zero. Most Recent values listed first.
   **   ~~~   ** Demand-to-Supply interface energy check value iteration history trace: 1323.738761,1323.738761,1323.738760,1323.738760,1323.738760,1323.738760,1323.738760,1323.738760,1323.738760,1323.738760,
   **   ~~~   ** Supply-to-demand interface deck 1 energy check value iteration history trace: 2286.355731,2286.355731,2286.355731,2286.355731,2286.355731,2286.355731,2286.355730,2286.355730,2286.355730,2286.355730,
   ** Warning ** SimHVAC: Maximum iterations (20) exceeded for all HVAC loops, at ANNUAL, 03/10 09:30 - 09:45
   **   ~~~   ** The solution for one or more of the Air Loop HVAC systems did not appear to converge
   **   ~~~   ** Air System Named = CENTRAL SYSTEM did not converge for mass flow rate
   **   ~~~   ** Check values should be zero. Most Recent values listed first.
   **   ~~~   ** Demand-to-Supply interface mass flow rate check value iteration history trace: 8.343775E-002,8.343775E-002,8.343775E-002,8.343775E-002,8.343775E-002,8.343775E-002,8.343775E-002,8.343775E-002,8.343775E-002,8.343775E-002,
   **   ~~~   ** Supply-to-demand interface deck 1 mass flow rate check value iteration history trace: 8.343775E-002,8.343775E-002,8.343775E-002,8.343775E-002,8.343775E-002,8.343775E-002,8.343775E-002,8.343775E-002,8.343775E-002,8.343775E-002,
   **   ~~~   ** Air System Named = CENTRAL SYSTEM did not converge for energy
   **   ~~~   ** Check values should be zero. Most Recent values listed first.
   **   ~~~   ** Demand-to-Supply interface energy check value iteration history trace: 1653.475074,1653.475073,1653.475073,1653.475073,1653.475073,1653.475073,1653.475073,1653.475073,1653.475073,1653.475073,
   **   ~~~   ** Supply-to-demand interface deck 1 energy check value iteration history trace: 2586.316577,2586.316576,2586.316576,2586.316576,2586.316576,2586.316576,2586.316576,2586.316575,2586.316575,2586.316575,
   ** Warning ** SimHVAC: Maximum iterations (20) exceeded for all HVAC loops, at ANNUAL, 03/12 05:08 - 05:11
   **   ~~~   ** The solution for one or more of the Air Loop HVAC systems did not appear to converge
   **   ~~~   ** Air System Named = CENTRAL SYSTEM did not converge for mass flow rate
   **   ~~~   ** Check values should be zero. Most Recent values listed first.
   **   ~~~   ** Demand-to-Supply interface mass flow rate check value iteration history trace: 6.410166E-002,6.410166E-002,6.410166E-002,6.410166E-002,6.410166E-002,6.410166E-002,6.410166E-002,6.410166E-002,6.410166E-002,6.410166E-002,
   **   ~~~   ** Supply-to-demand interface deck 1 mass flow rate check value iteration history trace: 6.410166E-002,6.410166E-002,6.410166E-002,6.410166E-002,6.410166E-002,6.410166E-002,6.410166E-002,6.410166E-002,6.410166E-002,6.410166E-002,
   **   ~~~   ** Air System Named = CENTRAL SYSTEM did not converge for energy
   **   ~~~   ** Check values should be zero. Most Recent values listed first.
   **   ~~~   ** Demand-to-Supply interface energy check value iteration history trace: 1272.535709,1272.535709,1272.535709,1272.535709,1272.535709,1272.535709,1272.535709,1272.535709,1272.535709,1272.535709,
   **   ~~~   ** Supply-to-demand interface deck 1 energy check value iteration history trace: 2128.318314,2128.318314,2128.318314,2128.318314,2128.318314,2128.318314,2128.318314,2128.318314,2128.318314,2128.318313,
   ** Warning ** SimHVAC: Maximum iterations (20) exceeded for all HVAC loops, at ANNUAL, 03/17 06:30 - 06:45
   **   ~~~   ** The solution for one or more of the Air Loop HVAC systems did not appear to converge
   **   ~~~   ** Air System Named = CENTRAL SYSTEM did not converge for mass flow rate
   **   ~~~   ** Check values should be zero. Most Recent values listed first.
   **   ~~~   ** Demand-to-Supply interface mass flow rate check value iteration history trace: 5.416136E-002,5.416136E-002,5.416136E-002,5.416136E-002,5.416136E-002,5.416136E-002,5.416136E-002,5.416136E-002,5.416136E-002,5.416136E-002,
   **   ~~~   ** Supply-to-demand interface deck 1 mass flow rate check value iteration history trace: 5.416136E-002,5.416136E-002,5.416136E-002,5.416136E-002,5.416136E-002,5.416136E-002,5.416136E-002,5.416136E-002,5.416136E-002,5.416136E-002,
   **   ~~~   ** Air System Named = CENTRAL SYSTEM did not converge for energy
   **   ~~~   ** Check values should be zero. Most Recent values listed first.
   **   ~~~   ** Demand-to-Supply interface energy check value iteration history trace: 1073.472451,1073.472451,1073.472451,1073.472451,1073.472451,1073.472451,1073.472451,1073.472451,1073.472451,1073.472451,
   **   ~~~   ** Supply-to-demand interface deck 1 energy check value iteration history trace: 1827.387773,1827.387773,1827.387772,1827.387772,1827.387772,1827.387772,1827.387772,1827.387772,1827.387772,1827.387772,
   ** Warning ** SimHVAC: Maximum iterations (20) exceeded for all HVAC loops, at ANNUAL, 03/24 07:45 - 08:00
   **   ~~~   ** The solution for one or more of the Air Loop HVAC systems did not appear to converge
   **   ~~~   ** Air System Named = CENTRAL SYSTEM did not converge for mass flow rate
   **   ~~~   ** Check values should be zero. Most Recent values listed first.
   **   ~~~   ** Demand-to-Supply interface mass flow rate check value iteration history trace: 9.997472E-002,9.997472E-002,9.997472E-002,9.997472E-002,9.997472E-002,9.997472E-002,9.997472E-002,9.997472E-002,9.997472E-002,9.997472E-002,
   **   ~~~   ** Supply-to-demand interface deck 1 mass flow rate check value iteration history trace: 9.997472E-002,9.997472E-002,9.997472E-002,9.997472E-002,9.997472E-002,9.997472E-002,9.997472E-002,9.997472E-002,9.997472E-002,9.997472E-002,
   **   ~~~   ** Air System Named = CENTRAL SYSTEM did not converge for energy
   **   ~~~   ** Check values should be zero. Most Recent values listed first.
   **   ~~~   ** Demand-to-Supply interface energy check value iteration history trace: 1980.740318,1980.740318,1980.740318,1980.740318,1980.740317,1980.740317,1980.740317,1980.740317,1980.740317,1980.740317,
   **   ~~~   ** Supply-to-demand interface deck 1 energy check value iteration history trace: 3102.141170,3102.141169,3102.141169,3102.141169,3102.141169,3102.141169,3102.141168,3102.141168,3102.141168,3102.141168,
   ** Warning ** SimHVAC: Maximum iterations (20) exceeded for all HVAC loops, at ANNUAL, 03/25 09:45 - 09:50
   **   ~~~   ** The solution for one or more of the Air Loop HVAC systems did not appear to converge
   **   ~~~   ** Air System Named = CENTRAL SYSTEM did not converge for mass flow rate
   **   ~~~   ** Check values should be zero. Most Recent values listed first.
   **   ~~~   ** Demand-to-Supply interface mass flow rate check value iteration history trace: 7.168985E-002,7.168985E-002,7.168985E-002,7.168985E-002,7.168985E-002,7.168985E-002,7.168985E-002,7.168985E-002,7.168985E-002,7.168985E-002,
   **   ~~~   ** Supply-to-demand interface deck 1 mass flow rate check value iteration history trace: 7.168985E-002,7.168985E-002,7.168985E-002,7.168985E-002,7.168985E-002,7.168985E-002,7.168985E-002,7.168985E-002,7.168985E-002,7.168985E-002,
   **   ~~~   ** Air System Named = CENTRAL SYSTEM did not converge for energy
   **   ~~~   ** Check values should be zero. Most Recent values listed first.
   **   ~~~   ** Demand-to-Supply interface energy check value iteration history trace: 1413.035837,1413.035837,1413.035837,1413.035836,1413.035836,1413.035836,1413.035836,1413.035835,1413.035835,1413.035835,
   **   ~~~   ** Supply-to-demand interface deck 1 energy check value iteration history trace: 2417.517043,2417.517043,2417.517042,2417.517042,2417.517041,2417.517041,2417.517040,2417.517040,2417.517039,2417.517039,
   **   ~~~   ** Node named ZONE INLET NODE shows oscillating temperatures across iterations with a repeated value of 33.559332
   **   ~~~   ** Node named ZONE INLET NODE temperature [C] iteration history trace (most recent first): 33.559332,33.559332,33.559332,33.559331,33.559331,33.559331,33.559331,33.559330,33.559330,33.559330,
   ** Warning ** SimHVAC: Maximum iterations (20) exceeded for all HVAC loops, at ANNUAL, 04/01 02:23 - 02:30
   **   ~~~   ** The solution for one or more of the Air Loop HVAC systems did not appear to converge
   **   ~~~   ** Air System Named = CENTRAL SYSTEM did not converge for mass flow rate
   **   ~~~   ** Check values should be zero. Most Recent values listed first.
   **   ~~~   ** Demand-to-Supply interface mass flow rate check value iteration history trace: 4.232190E-002,4.232190E-002,4.232190E-002,4.232190E-002,4.232190E-002,4.232190E-002,4.232190E-002,4.232190E-002,4.232190E-002,4.232190E-002,
   **   ~~~   ** Supply-to-demand interface deck 1 mass flow rate check value iteration history trace: 4.232190E-002,4.232190E-002,4.232190E-002,4.232190E-002,4.232190E-002,4.232190E-002,4.232190E-002,4.232190E-002,4.232190E-002,4.232190E-002,
   **   ~~~   ** Air System Named = CENTRAL SYSTEM did not converge for energy
   **   ~~~   ** Check values should be zero. Most Recent values listed first.
   **   ~~~   ** Demand-to-Supply interface energy check value iteration history trace: 787.368851,787.368851,787.368851,787.368851,787.368851,787.368851,787.368851,787.368851,787.368851,787.368851,
   **   ~~~   ** Supply-to-demand interface deck 1 energy check value iteration history trace: 1514.856221,1514.856221,1514.856221,1514.856221,1514.856221,1514.856221,1514.856221,1514.856221,1514.856221,1514.856221,
   ** Warning ** SimHVAC: Maximum iterations (20) exceeded for all HVAC loops, at ANNUAL, 04/13 07:45 - 08:00
   **   ~~~   ** The solution for one or more of the Air Loop HVAC systems did not appear to converge
   **   ~~~   ** Air System Named = CENTRAL SYSTEM did not converge for mass flow rate
   **   ~~~   ** Check values should be zero. Most Recent values listed first.
   **   ~~~   ** Demand-to-Supply interface mass flow rate check value iteration history trace: 9.789028E-002,9.789028E-002,9.789028E-002,9.789028E-002,9.789028E-002,9.789028E-002,9.789028E-002,9.789028E-002,9.789028E-002,9.789028E-002,
   **   ~~~   ** Supply-to-demand interface deck 1 mass flow rate check value iteration history trace: 9.789028E-002,9.789028E-002,9.789028E-002,9.789028E-002,9.789028E-002,9.789028E-002,9.789028E-002,9.789028E-002,9.789028E-002,9.789028E-002,
   **   ~~~   ** Air System Named = CENTRAL SYSTEM did not converge for energy
   **   ~~~   ** Check values should be zero. Most Recent values listed first.
   **   ~~~   ** Demand-to-Supply interface energy check value iteration history trace: 1939.671800,1939.671800,1939.671800,1939.671800,1939.671800,1939.671800,1939.671800,1939.671800,1939.671799,1939.671799,
   **   ~~~   ** Supply-to-demand interface deck 1 energy check value iteration history trace: 2970.760204,2970.760204,2970.760203,2970.760203,2970.760203,2970.760203,2970.760203,2970.760202,2970.760202,2970.760202,
   ************* Simulation Error Summary *************
   ** Warning ** The following Report Variables were requested but not generated -- check.rdd file
   **   ~~~   ** Either the IDF did not contain these elements, the variable name is misspelled,
   **   ~~~   ** or the requested variable is an advanced output which requires Output : Diagnostics, DisplayAdvancedReportVariables;
   ************* Key=*, VarName=BASEBOARD TOTAL HEATING ENERGY, Frequency=
   ************* Key=*, VarName=WATER HEATER NATURALGAS ENERGY, Frequency=
   ************* Key=*, VarName=COOLING COIL TOTAL HEATING ENERGY, Frequency=
   ************* There are 34 unused schedules in input.
   ************* There are 388 unused week schedules in input.
   ************* There are 396 unused day schedules in input.
   ************* Use Output:Diagnostics,DisplayUnusedSchedules; to see them.
   *************
   ************* ===== Recurring Error Summary =====
   ************* The following recurring error messages occurred.
   *************
   *************  ** Warning ** "TOTAL HOT WATER LOAD" - Target water temperature should be less than or equal to the hot water temperature error continues...
   *************  **   ~~~   **   This error occurred 136803 total times;
   *************  **   ~~~   **   during Warmup 0 times;
   *************  **   ~~~   **   during Sizing 0 times.
   *************  **   ~~~   **   Max=11.030353  Min=3.006553E-004
   *************
   *************  ** Warning ** SimHVAC: Exceeding Maximum iterations for all HVAC loops, during ANNUAL continues
   *************  **   ~~~   **   This error occurred 11 total times;
   *************  **   ~~~   **   during Warmup 0 times;
   *************  **   ~~~   **   during Sizing 0 times.
   *************
   *************
   ************* ===== Final Error Summary =====
   ************* The following error categories occurred.  Consider correcting or noting.
   ************* Nominally Unused Constructions
   ************* ..The nominally unused constructions warning is provided to alert you to potential conditions that can cause
   ************* ..extra time during simulation. Each construction is calculated by the algorithm indicated in the HeatBalanceAlgorithm
   ************* ..object. You may remove the constructions indicated (when you use the DisplayExtraWarnings option).
   *************
   ************* EnergyPlus Warmup Error Summary. During Warmup: 1 Warning; 0 Severe Errors.
   ************* EnergyPlus Sizing Error Summary. During Sizing: 4 Warning; 0 Severe Errors.
   ************* EnergyPlus Completed Successfully-- 136846 Warning; 0 Severe Errors; Elapsed Time=00hr 01min 40.28sec
