Program Version,EnergyPlus, Version 22.2.0-c249759bad, YMD=2023.09.01 17:43,
   ************* Beginning Zone Sizing Calculations
   ** Warning ** ProcessScheduleInput: Schedule:Constant="ALWAYS ON DISCRETE", Schedule Type Limits Name="ONOFF" not found -- will not be validated
   ** Warning ** Foundation:Kiva="KIVA FOUNDATION", no Interior Horizontal Insulation Material Name defined
   **   ~~~   ** Interior Horizontal Insulation Depth will not be used.
   ** Warning ** CheckUsedConstructions: There are 15 nominally unused constructions in input.
   **   ~~~   ** Each Unused construction is shown.
   ************* Construction=INTERIOR FLOOR
   ************* Construction=INTERIOR WINDOW
   ************* Construction=EXTERIOR DOOR
   ************* Construction=INTERIOR DOOR
   ************* Construction=GABLE CONSTRUCTION
   ************* Construction=CRAWL_FLOOR
   ************* Construction=INSULATED PIPE
   ************* Construction=PLAIN PIPE
   ************* Construction=TDD PIPE
   ************* Construction=TDD DOME
   ************* Construction=TDD DIFFUSER
   ************* Construction=CRAWL WALL
   ************* Construction=CEILING-FLOOR-LAYER
   ************* Construction=SLAB CONSTRUCTION W FULL R10 INSULATION
   ************* Construction=SLAB CONSTRUCTION W FULL R5 INSULATION
   ** Warning ** GetDXCoils: Coil:Heating:DX:SingleSpeed="DX_HEATING_COIL" curve values
   **   ~~~   ** ... Defrost Energy Input Ratio Function of Temperature Curve Name = DEFROSTEIR output is not equal to 1.0 (+ or - 10%) at rated conditions.
   **   ~~~   ** ... Curve output at rated conditions = 0.152
   ************* Beginning System Sizing Calculations
   ************* Beginning Plant Sizing Calculations
   ** Warning ** SizeDXCoil Coil:Cooling:DX:SingleSpeed DX_COOLING_COIL
   **   ~~~   ** ...Gross Rated Total Cooling Capacity [W] will be limited by the maximum rated volume flow per rated total capacity ratio.
   **   ~~~   ** ...DX coil volume flow rate ( m3/s ) = 0.576318
   **   ~~~   ** ...Requested capacity ( W ) = 8176.759
   **   ~~~   ** ...Requested flow/capacity ratio ( m3/s/W ) = 7.048E-005
   **   ~~~   ** ...Maximum flow/capacity ratio ( m3/s/W ) = 6.041E-005
   **   ~~~   ** ...Adjusted capacity ( W ) = 9540.112
   ** Warning ** Coil:WaterHeating:AirToWaterHeatPump:Wrapped "HEAT PUMP WATER HEATER EVAPORATOR": Rated air volume flow rate per watt of rated total water heating capacity is out of range
   **   ~~~   ** Min Rated Vol Flow Per Watt=[4.027E-005], Rated Vol Flow Per Watt=[1.510E-004], Max Rated Vol Flow Per Watt=[8.056E-005]. See Input-Output Reference Manual for valid range.
   ************* SizeFan: : Potential issue with equipment sizing for Fan:OnOff HEAT PUMP WATER HEATER FAN
   **   ~~~   ** User-Specified Maximum Flow Rate [m3/s] = 0.22653
   **   ~~~   ** differs from Design Size Maximum Flow Rate [m3/s] = 7.55250E-002
   **   ~~~   ** This may, or may not, indicate mismatched component sizes.
   **   ~~~   ** Verify that the value entered is intended and is consistent with other components.
   ** Warning ** Water heater = WATER HEATER TANK:  Recovery Efficiency and Energy Factor could not be calculated during the test for standard ratings
   **   ~~~   ** Setpoint was never recovered and/or heater never turned on
   ** Warning ** Check input. Pump nominal power or motor efficiency is set to 0, for pump=MAINS PRESSURE
   ** Warning ** Output:Meter: invalid Key Name="ELECTRIC_RANGE:INTERIOREQUIPMENT:ELECTRICITY" - not found.
   ** Warning ** Output:Meter: invalid Key Name="ELECTRIC_DRYER:INTERIOREQUIPMENT:ELECTRICITY" - not found.
   ** Warning ** Output:Meter: invalid Key Name="HEATRECOVERY:ELECTRICITY" - not found.
   ** Warning ** Output:Meter: invalid Key Name="HEATING:NATURALGAS" - not found.
   ** Warning ** Output:Meter: invalid Key Name="WATERSYSTEMS:NATURALGAS" - not found.
   ** Warning ** Output:Meter: invalid Key Name="PROPANE:FACILITY" - not found.
   ** Warning ** Output:Meter: invalid Key Name="HEATING:PROPANE" - not found.
   ************* Testing Individual Branch Integrity
   ************* All Branches passed integrity testing
   ************* Testing Individual Supply Air Path Integrity
   ************* All Supply Air Paths passed integrity testing
   ************* Testing Individual Return Air Path Integrity
   ************* All Return Air Paths passed integrity testing
   ************* No node connection errors were found.
   ************* Beginning Simulation
   ** Warning ** AirflowNetwork::Solver::validate_distribution: Heat pump water heater is simulated along with an AirflowNetwork but is not included in the AirflowNetwork.
   ** Warning ** CalcEquipmentFlowRates: "TOTAL HOT WATER LOAD" - Target water temperature is greater than the hot water temperature by (1.09 C)
   **   ~~~   **  Environment=EXTREME_WINTER, at Simulation time=12/22 06:00 - 06:15
   **   ~~~   ** ...target water temperature     = 53.33 C
   **   ~~~   ** ...hot water temperature        = 52.24 C
   **   ~~~   ** ...Target water temperature should be less than or equal to the hot water temperature. Verify temperature setpoints and schedules.
   ** Warning ** SimHVAC: Maximum iterations (20) exceeded for all HVAC loops, at EXTREME_SUMMER, 07/08 05:23 - 05:30
   **   ~~~   ** The solution for one or more of the Air Loop HVAC systems did not appear to converge
   **   ~~~   ** Air System Named = CENTRAL SYSTEM did not converge for mass flow rate
   **   ~~~   ** Check values should be zero. Most Recent values listed first.
   **   ~~~   ** Demand-to-Supply interface mass flow rate check value iteration history trace: 0.239478,0.239478,0.239478,0.239478,0.239478,0.239478,0.239478,0.239478,0.239478,0.239478,
   **   ~~~   ** Supply-to-demand interface deck 1 mass flow rate check value iteration history trace: 0.239478,0.239478,0.239478,0.239478,0.239478,0.239478,0.239478,0.239478,0.239478,0.239478,
   **   ~~~   ** Air System Named = CENTRAL SYSTEM did not converge for energy
   **   ~~~   ** Check values should be zero. Most Recent values listed first.
   **   ~~~   ** Demand-to-Supply interface energy check value iteration history trace: 5725.062256,5725.062256,5725.062256,5725.062257,5725.062257,5725.062257,5725.062258,5725.062258,5725.062258,5725.062259,
   **   ~~~   ** Supply-to-demand interface deck 1 energy check value iteration history trace: 3071.131822,3071.131822,3071.131822,3071.131822,3071.131822,3071.131823,3071.131823,3071.131823,3071.131823,3071.131823,
   ** Warning ** SimHVAC: Maximum iterations (20) exceeded for all HVAC loops, at ANNUAL, 01/01 19:23 - 19:30
   **   ~~~   ** The solution for one or more of the Air Loop HVAC systems did not appear to converge
   **   ~~~   ** Air System Named = CENTRAL SYSTEM did not converge for mass flow rate
   **   ~~~   ** Check values should be zero. Most Recent values listed first.
   **   ~~~   ** Demand-to-Supply interface mass flow rate check value iteration history trace: 0.103960,0.103960,0.103960,0.103960,0.103960,0.103960,0.103960,0.103960,0.103960,0.103960,
   **   ~~~   ** Supply-to-demand interface deck 1 mass flow rate check value iteration history trace: 0.103960,0.103960,0.103960,0.103960,0.103960,0.103960,0.103960,0.103960,0.103960,0.103960,
   **   ~~~   ** Air System Named = CENTRAL SYSTEM did not converge for energy
   **   ~~~   ** Check values should be zero. Most Recent values listed first.
   **   ~~~   ** Demand-to-Supply interface energy check value iteration history trace: 2058.390436,2058.390436,2058.390436,2058.390436,2058.390436,2058.390436,2058.390436,2058.390435,2058.390435,2058.390435,
   **   ~~~   ** Supply-to-demand interface deck 1 energy check value iteration history trace: 3170.856564,3170.856564,3170.856563,3170.856563,3170.856563,3170.856563,3170.856563,3170.856562,3170.856562,3170.856562,
   ** Warning ** SimHVAC: Maximum iterations (20) exceeded for all HVAC loops, at ANNUAL, 01/07 10:00 - 10:15
   **   ~~~   ** The solution for one or more of the Air Loop HVAC systems did not appear to converge
   **   ~~~   ** Air System Named = CENTRAL SYSTEM did not converge for mass flow rate
   **   ~~~   ** Check values should be zero. Most Recent values listed first.
   **   ~~~   ** Demand-to-Supply interface mass flow rate check value iteration history trace: 5.880125E-002,5.880125E-002,5.880125E-002,5.880125E-002,5.880125E-002,5.880125E-002,5.880125E-002,5.880125E-002,5.880125E-002,5.880125E-002,
   **   ~~~   ** Supply-to-demand interface deck 1 mass flow rate check value iteration history trace: 5.880125E-002,5.880125E-002,5.880125E-002,5.880125E-002,5.880125E-002,5.880125E-002,5.880125E-002,5.880125E-002,5.880125E-002,5.880125E-002,
   **   ~~~   ** Air System Named = CENTRAL SYSTEM did not converge for energy
   **   ~~~   ** Check values should be zero. Most Recent values listed first.
   **   ~~~   ** Demand-to-Supply interface energy check value iteration history trace: 1165.230622,1165.230622,1165.230622,1165.230622,1165.230622,1165.230622,1165.230622,1165.230622,1165.230622,1165.230622,
   **   ~~~   ** Supply-to-demand interface deck 1 energy check value iteration history trace: 2142.128710,2142.128710,2142.128710,2142.128710,2142.128710,2142.128710,2142.128710,2142.128710,2142.128710,2142.128710,
   ** Warning ** SimHVAC: Maximum iterations (20) exceeded for all HVAC loops, at ANNUAL, 01/08 09:45 - 10:00
   **   ~~~   ** The solution for one or more of the Air Loop HVAC systems did not appear to converge
   **   ~~~   ** Air System Named = CENTRAL SYSTEM did not converge for mass flow rate
   **   ~~~   ** Check values should be zero. Most Recent values listed first.
   **   ~~~   ** Demand-to-Supply interface mass flow rate check value iteration history trace: 6.570442E-002,6.570442E-002,6.570442E-002,6.570442E-002,6.570442E-002,6.570442E-002,6.570442E-002,6.570442E-002,6.570442E-002,6.570442E-002,
   **   ~~~   ** Supply-to-demand interface deck 1 mass flow rate check value iteration history trace: 6.570442E-002,6.570442E-002,6.570442E-002,6.570442E-002,6.570442E-002,6.570442E-002,6.570442E-002,6.570442E-002,6.570442E-002,6.570442E-002,
   **   ~~~   ** Air System Named = CENTRAL SYSTEM did not converge for energy
   **   ~~~   ** Check values should be zero. Most Recent values listed first.
   **   ~~~   ** Demand-to-Supply interface energy check value iteration history trace: 1302.027011,1302.027010,1302.027010,1302.027010,1302.027010,1302.027010,1302.027010,1302.027010,1302.027010,1302.027010,
   **   ~~~   ** Supply-to-demand interface deck 1 energy check value iteration history trace: 2323.309623,2323.309623,2323.309622,2323.309622,2323.309622,2323.309622,2323.309622,2323.309622,2323.309622,2323.309622,
   ** Warning ** SimHVAC: Maximum iterations (20) exceeded for all HVAC loops, at ANNUAL, 02/07 09:00 - 09:15
   **   ~~~   ** The solution for one or more of the Air Loop HVAC systems did not appear to converge
   **   ~~~   ** Air System Named = CENTRAL SYSTEM did not converge for mass flow rate
   **   ~~~   ** Check values should be zero. Most Recent values listed first.
   **   ~~~   ** Demand-to-Supply interface mass flow rate check value iteration history trace: 5.540455E-002,5.540455E-002,5.540455E-002,5.540455E-002,5.540455E-002,5.540455E-002,5.540455E-002,5.540455E-002,5.540455E-002,5.540455E-002,
   **   ~~~   ** Supply-to-demand interface deck 1 mass flow rate check value iteration history trace: 5.540455E-002,5.540455E-002,5.540455E-002,5.540455E-002,5.540455E-002,5.540455E-002,5.540455E-002,5.540455E-002,5.540455E-002,5.540455E-002,
   **   ~~~   ** Air System Named = CENTRAL SYSTEM did not converge for energy
   **   ~~~   ** Check values should be zero. Most Recent values listed first.
   **   ~~~   ** Demand-to-Supply interface energy check value iteration history trace: 1097.954382,1097.954382,1097.954382,1097.954382,1097.954382,1097.954382,1097.954382,1097.954382,1097.954382,1097.954382,
   **   ~~~   ** Supply-to-demand interface deck 1 energy check value iteration history trace: 2043.473314,2043.473314,2043.473314,2043.473314,2043.473313,2043.473313,2043.473313,2043.473313,2043.473313,2043.473313,
   ** Warning ** SimHVAC: Maximum iterations (20) exceeded for all HVAC loops, at ANNUAL, 02/15 13:15 - 13:30
   **   ~~~   ** The solution for one or more of the Air Loop HVAC systems did not appear to converge
   **   ~~~   ** Air System Named = CENTRAL SYSTEM did not converge for mass flow rate
   **   ~~~   ** Check values should be zero. Most Recent values listed first.
   **   ~~~   ** Demand-to-Supply interface mass flow rate check value iteration history trace: 6.059428E-002,6.059428E-002,6.059428E-002,6.059428E-002,6.059428E-002,6.059428E-002,6.059428E-002,6.059428E-002,6.059428E-002,6.059428E-002,
   **   ~~~   ** Supply-to-demand interface deck 1 mass flow rate check value iteration history trace: 6.059428E-002,6.059428E-002,6.059428E-002,6.059428E-002,6.059428E-002,6.059428E-002,6.059428E-002,6.059428E-002,6.059428E-002,6.059428E-002,
   **   ~~~   ** Air System Named = CENTRAL SYSTEM did not converge for energy
   **   ~~~   ** Check values should be zero. Most Recent values listed first.
   **   ~~~   ** Demand-to-Supply interface energy check value iteration history trace: 1202.159558,1202.159558,1202.159558,1202.159558,1202.159558,1202.159558,1202.159558,1202.159557,1202.159557,1202.159557,
   **   ~~~   ** Supply-to-demand interface deck 1 energy check value iteration history trace: 1819.867483,1819.867483,1819.867483,1819.867483,1819.867482,1819.867482,1819.867482,1819.867482,1819.867482,1819.867482,
   ** Warning ** SimHVAC: Maximum iterations (20) exceeded for all HVAC loops, at ANNUAL, 02/19 00:15 - 00:30
   **   ~~~   ** The solution for one or more of the Air Loop HVAC systems did not appear to converge
   **   ~~~   ** Air System Named = CENTRAL SYSTEM did not converge for mass flow rate
   **   ~~~   ** Check values should be zero. Most Recent values listed first.
   **   ~~~   ** Demand-to-Supply interface mass flow rate check value iteration history trace: 4.734630E-002,4.734630E-002,4.734630E-002,4.734630E-002,4.734630E-002,4.734630E-002,4.734630E-002,4.734630E-002,4.734630E-002,4.734630E-002,
   **   ~~~   ** Supply-to-demand interface deck 1 mass flow rate check value iteration history trace: 4.734630E-002,4.734630E-002,4.734630E-002,4.734630E-002,4.734630E-002,4.734630E-002,4.734630E-002,4.734630E-002,4.734630E-002,4.734630E-002,
   **   ~~~   ** Air System Named = CENTRAL SYSTEM did not converge for energy
   **   ~~~   ** Check values should be zero. Most Recent values listed first.
   **   ~~~   ** Demand-to-Supply interface energy check value iteration history trace: 881.102580,881.102580,881.102580,881.102579,881.102579,881.102579,881.102579,881.102579,881.102579,881.102579,
   **   ~~~   ** Supply-to-demand interface deck 1 energy check value iteration history trace: 1614.507953,1614.507953,1614.507953,1614.507953,1614.507952,1614.507952,1614.507952,1614.507952,1614.507951,1614.507951,
   ** Warning ** SimHVAC: Maximum iterations (20) exceeded for all HVAC loops, at ANNUAL, 03/19 08:15 - 08:30
   **   ~~~   ** The solution for one or more of the Air Loop HVAC systems did not appear to converge
   **   ~~~   ** Air System Named = CENTRAL SYSTEM did not converge for mass flow rate
   **   ~~~   ** Check values should be zero. Most Recent values listed first.
   **   ~~~   ** Demand-to-Supply interface mass flow rate check value iteration history trace: 5.210532E-002,5.210532E-002,5.210532E-002,5.210532E-002,5.210532E-002,5.210532E-002,5.210532E-002,5.210532E-002,5.210532E-002,5.210532E-002,
   **   ~~~   ** Supply-to-demand interface deck 1 mass flow rate check value iteration history trace: 5.210532E-002,5.210532E-002,5.210532E-002,5.210532E-002,5.210532E-002,5.210532E-002,5.210532E-002,5.210532E-002,5.210532E-002,5.210532E-002,
   **   ~~~   ** Air System Named = CENTRAL SYSTEM did not converge for energy
   **   ~~~   ** Check values should be zero. Most Recent values listed first.
   **   ~~~   ** Demand-to-Supply interface energy check value iteration history trace: 1032.531899,1032.531899,1032.531899,1032.531899,1032.531899,1032.531899,1032.531899,1032.531899,1032.531899,1032.531899,
   **   ~~~   ** Supply-to-demand interface deck 1 energy check value iteration history trace: 1886.882110,1886.882110,1886.882110,1886.882109,1886.882109,1886.882109,1886.882109,1886.882109,1886.882109,1886.882109,
   ** Warning ** SimHVAC: Maximum iterations (20) exceeded for all HVAC loops, at ANNUAL, 03/29 01:08 - 01:15
   **   ~~~   ** The solution for one or more of the Air Loop HVAC systems did not appear to converge
   **   ~~~   ** Air System Named = CENTRAL SYSTEM did not converge for mass flow rate
   **   ~~~   ** Check values should be zero. Most Recent values listed first.
   **   ~~~   ** Demand-to-Supply interface mass flow rate check value iteration history trace: 6.390013E-002,6.390013E-002,6.390013E-002,6.390013E-002,6.390013E-002,6.390013E-002,6.390013E-002,6.390013E-002,6.390013E-002,6.390013E-002,
   **   ~~~   ** Supply-to-demand interface deck 1 mass flow rate check value iteration history trace: 6.390013E-002,6.390013E-002,6.390013E-002,6.390013E-002,6.390013E-002,6.390013E-002,6.390013E-002,6.390013E-002,6.390013E-002,6.390013E-002,
   **   ~~~   ** Air System Named = CENTRAL SYSTEM did not converge for energy
   **   ~~~   ** Check values should be zero. Most Recent values listed first.
   **   ~~~   ** Demand-to-Supply interface energy check value iteration history trace: 1199.953736,1199.953736,1199.953736,1199.953736,1199.953736,1199.953735,1199.953735,1199.953735,1199.953735,1199.953735,
   **   ~~~   ** Supply-to-demand interface deck 1 energy check value iteration history trace: 1949.672593,1949.672593,1949.672593,1949.672592,1949.672592,1949.672592,1949.672592,1949.672592,1949.672592,1949.672592,
   ** Warning ** SimHVAC: Maximum iterations (20) exceeded for all HVAC loops, at ANNUAL, 04/03 07:45 - 07:48
   **   ~~~   ** The solution for one or more of the Air Loop HVAC systems did not appear to converge
   **   ~~~   ** Air System Named = CENTRAL SYSTEM did not converge for mass flow rate
   **   ~~~   ** Check values should be zero. Most Recent values listed first.
   **   ~~~   ** Demand-to-Supply interface mass flow rate check value iteration history trace: 5.097955E-002,5.097955E-002,5.097955E-002,5.097955E-002,5.097955E-002,5.097955E-002,5.097955E-002,5.097955E-002,5.097955E-002,5.097955E-002,
   **   ~~~   ** Supply-to-demand interface deck 1 mass flow rate check value iteration history trace: 5.097955E-002,5.097955E-002,5.097955E-002,5.097955E-002,5.097955E-002,5.097955E-002,5.097955E-002,5.097955E-002,5.097955E-002,5.097955E-002,
   **   ~~~   ** Air System Named = CENTRAL SYSTEM did not converge for energy
   **   ~~~   ** Check values should be zero. Most Recent values listed first.
   **   ~~~   ** Demand-to-Supply interface energy check value iteration history trace: 1010.256589,1010.256589,1010.256589,1010.256589,1010.256589,1010.256589,1010.256589,1010.256589,1010.256589,1010.256589,
   **   ~~~   ** Supply-to-demand interface deck 1 energy check value iteration history trace: 1892.616481,1892.616481,1892.616481,1892.616481,1892.616481,1892.616481,1892.616481,1892.616481,1892.616481,1892.616481,
   ** Warning ** SimHVAC: Maximum iterations (20) exceeded for all HVAC loops, at ANNUAL, 04/23 00:25 - 00:30
   **   ~~~   ** The solution for one or more of the Air Loop HVAC systems did not appear to converge
   **   ~~~   ** Air System Named = CENTRAL SYSTEM did not converge for mass flow rate
   **   ~~~   ** Check values should be zero. Most Recent values listed first.
   **   ~~~   ** Demand-to-Supply interface mass flow rate check value iteration history trace: 0.111800,0.111800,0.111800,0.111800,0.111800,0.111800,0.111800,0.111800,0.111800,0.111800,
   **   ~~~   ** Supply-to-demand interface deck 1 mass flow rate check value iteration history trace: 0.111800,0.111800,0.111800,0.111800,0.111800,0.111800,0.111800,0.111800,0.111800,0.111800,
   **   ~~~   ** Air System Named = CENTRAL SYSTEM did not converge for energy
   **   ~~~   ** Check values should be zero. Most Recent values listed first.
   **   ~~~   ** Demand-to-Supply interface energy check value iteration history trace: 2764.322716,2764.322716,2764.322717,2764.322717,2764.322718,2764.322719,2764.322719,2764.322720,2764.322720,2764.322721,
   **   ~~~   ** Supply-to-demand interface deck 1 energy check value iteration history trace: 1067.711384,1067.711384,1067.711384,1067.711385,1067.711385,1067.711385,1067.711385,1067.711385,1067.711386,1067.711386,
   ** Warning ** SimHVAC: Maximum iterations (20) exceeded for all HVAC loops, at ANNUAL, 10/13 07:00 - 07:15
   **   ~~~   ** The solution for one or more of the Air Loop HVAC systems did not appear to converge
   **   ~~~   ** Air System Named = CENTRAL SYSTEM did not converge for mass flow rate
   **   ~~~   ** Check values should be zero. Most Recent values listed first.
   **   ~~~   ** Demand-to-Supply interface mass flow rate check value iteration history trace: 5.184920E-002,5.184920E-002,5.184920E-002,5.184920E-002,5.184920E-002,5.184920E-002,5.184920E-002,5.184920E-002,5.184920E-002,5.184920E-002,
   **   ~~~   ** Supply-to-demand interface deck 1 mass flow rate check value iteration history trace: 5.184920E-002,5.184920E-002,5.184920E-002,5.184920E-002,5.184920E-002,5.184920E-002,5.184920E-002,5.184920E-002,5.184920E-002,5.184920E-002,
   **   ~~~   ** Air System Named = CENTRAL SYSTEM did not converge for energy
   **   ~~~   ** Check values should be zero. Most Recent values listed first.
   **   ~~~   ** Demand-to-Supply interface energy check value iteration history trace: 1030.589362,1030.589361,1030.589361,1030.589361,1030.589361,1030.589361,1030.589360,1030.589360,1030.589360,1030.589360,
   **   ~~~   ** Supply-to-demand interface deck 1 energy check value iteration history trace: 1899.142179,1899.142179,1899.142179,1899.142178,1899.142178,1899.142177,1899.142177,1899.142177,1899.142176,1899.142176,
   **   ~~~   ** Node named ZONE INLET NODE shows oscillating temperatures across iterations with a repeated value of 36.451621
   **   ~~~   ** Node named ZONE INLET NODE temperature [C] iteration history trace (most recent first): 36.451621,36.451621,36.451621,36.451620,36.451620,36.451620,36.451619,36.451619,36.451619,36.451619,
   ** Warning ** SimHVAC: Maximum iterations (20) exceeded for all HVAC loops, at ANNUAL, 11/05 12:41 - 12:45
   **   ~~~   ** The solution for one or more of the Air Loop HVAC systems did not appear to converge
   **   ~~~   ** Air System Named = CENTRAL SYSTEM did not converge for mass flow rate
   **   ~~~   ** Check values should be zero. Most Recent values listed first.
   **   ~~~   ** Demand-to-Supply interface mass flow rate check value iteration history trace: 6.950339E-002,6.950339E-002,6.950339E-002,6.950339E-002,6.950339E-002,6.950339E-002,6.950339E-002,6.950339E-002,6.950339E-002,6.950339E-002,
   **   ~~~   ** Supply-to-demand interface deck 1 mass flow rate check value iteration history trace: 6.950339E-002,6.950339E-002,6.950339E-002,6.950339E-002,6.950339E-002,6.950339E-002,6.950339E-002,6.950339E-002,6.950339E-002,6.950339E-002,
   **   ~~~   ** Air System Named = CENTRAL SYSTEM did not converge for energy
   **   ~~~   ** Check values should be zero. Most Recent values listed first.
   **   ~~~   ** Demand-to-Supply interface energy check value iteration history trace: 1638.144664,1638.144664,1638.144664,1638.144665,1638.144665,1638.144665,1638.144666,1638.144666,1638.144666,1638.144666,
   **   ~~~   ** Supply-to-demand interface deck 1 energy check value iteration history trace: 571.276698,571.276698,571.276698,571.276698,571.276698,571.276698,571.276699,571.276699,571.276699,571.276699,
   ** Warning ** SimHVAC: Maximum iterations (20) exceeded for all HVAC loops, at ANNUAL, 11/08 13:00 - 13:15
   **   ~~~   ** The solution for one or more of the Air Loop HVAC systems did not appear to converge
   **   ~~~   ** Air System Named = CENTRAL SYSTEM did not converge for mass flow rate
   **   ~~~   ** Check values should be zero. Most Recent values listed first.
   **   ~~~   ** Demand-to-Supply interface mass flow rate check value iteration history trace: 0.119070,0.119070,0.119070,0.119070,0.119070,0.119070,0.119070,0.119070,0.119070,0.119070,
   **   ~~~   ** Supply-to-demand interface deck 1 mass flow rate check value iteration history trace: 0.119070,0.119070,0.119070,0.119070,0.119070,0.119070,0.119070,0.119070,0.119070,0.119070,
   **   ~~~   ** Air System Named = CENTRAL SYSTEM did not converge for energy
   **   ~~~   ** Check values should be zero. Most Recent values listed first.
   **   ~~~   ** Demand-to-Supply interface energy check value iteration history trace: 2882.557610,2882.557611,2882.557612,2882.557612,2882.557613,2882.557613,2882.557614,2882.557614,2882.557615,2882.557615,
   **   ~~~   ** Supply-to-demand interface deck 1 energy check value iteration history trace: 990.338481,990.338481,990.338482,990.338482,990.338482,990.338482,990.338482,990.338483,990.338483,990.338483,
   ************* Simulation Error Summary *************
   ** Warning ** The following Report Variables were requested but not generated -- check.rdd file
   **   ~~~   ** Either the IDF did not contain these elements, the variable name is misspelled,
   **   ~~~   ** or the requested variable is an advanced output which requires Output : Diagnostics, DisplayAdvancedReportVariables;
   ************* Key=*, VarName=BASEBOARD TOTAL HEATING ENERGY, Frequency=
   ************* Key=*, VarName=WATER HEATER NATURALGAS ENERGY, Frequency=
   ************* Key=*, VarName=COOLING COIL TOTAL HEATING ENERGY, Frequency=
   ************* There are 34 unused schedules in input.
   ************* There are 388 unused week schedules in input.
   ************* There are 396 unused day schedules in input.
   ************* Use Output:Diagnostics,DisplayUnusedSchedules; to see them.
   *************
   ************* ===== Recurring Error Summary =====
   ************* The following recurring error messages occurred.
   *************
   *************  ** Warning ** "TOTAL HOT WATER LOAD" - Target water temperature should be less than or equal to the hot water temperature error continues...
   *************  **   ~~~   **   This error occurred 144327 total times;
   *************  **   ~~~   **   during Warmup 0 times;
   *************  **   ~~~   **   during Sizing 0 times.
   *************  **   ~~~   **   Max=9.627181  Min=7.559742E-004
   *************
   *************  ** Warning ** SimHVAC: Exceeding Maximum iterations for all HVAC loops, during ANNUAL continues
   *************  **   ~~~   **   This error occurred 3 total times;
   *************  **   ~~~   **   during Warmup 0 times;
   *************  **   ~~~   **   during Sizing 0 times.
   *************
   *************
   ************* ===== Final Error Summary =====
   ************* The following error categories occurred.  Consider correcting or noting.
   ************* Nominally Unused Constructions
   ************* ..The nominally unused constructions warning is provided to alert you to potential conditions that can cause
   ************* ..extra time during simulation. Each construction is calculated by the algorithm indicated in the HeatBalanceAlgorithm
   ************* ..object. You may remove the constructions indicated (when you use the DisplayExtraWarnings option).
   *************
   ************* EnergyPlus Warmup Error Summary. During Warmup: 1 Warning; 0 Severe Errors.
   ************* EnergyPlus Sizing Error Summary. During Sizing: 4 Warning; 0 Severe Errors.
   ************* EnergyPlus Completed Successfully-- 144362 Warning; 0 Severe Errors; Elapsed Time=00hr 06min 34.13sec
