Program Version,EnergyPlus, Version 22.2.0-c249759bad, YMD=2023.09.01 19:06,
   ************* Beginning Zone Sizing Calculations
   ** Warning ** ProcessScheduleInput: Schedule:Constant="ALWAYS ON DISCRETE", Schedule Type Limits Name="ONOFF" not found -- will not be validated
   ** Warning ** Foundation:Kiva="KIVA FOUNDATION", no Interior Horizontal Insulation Material Name defined
   **   ~~~   ** Interior Horizontal Insulation Depth will not be used.
   ** Warning ** CheckUsedConstructions: There are 15 nominally unused constructions in input.
   **   ~~~   ** Each Unused construction is shown.
   ************* Construction=INTERIOR FLOOR
   ************* Construction=INTERIOR WINDOW
   ************* Construction=EXTERIOR DOOR
   ************* Construction=INTERIOR DOOR
   ************* Construction=GABLE CONSTRUCTION
   ************* Construction=CRAWL_FLOOR
   ************* Construction=INSULATED PIPE
   ************* Construction=PLAIN PIPE
   ************* Construction=TDD PIPE
   ************* Construction=TDD DOME
   ************* Construction=TDD DIFFUSER
   ************* Construction=CRAWL WALL
   ************* Construction=CEILING-FLOOR-LAYER
   ************* Construction=SLAB CONSTRUCTION W FULL R10 INSULATION
   ************* Construction=SLAB CONSTRUCTION W FULL R5 INSULATION
   ** Warning ** GetDXCoils: Coil:Heating:DX:SingleSpeed="DX_HEATING_COIL" curve values
   **   ~~~   ** ... Defrost Energy Input Ratio Function of Temperature Curve Name = DEFROSTEIR output is not equal to 1.0 (+ or - 10%) at rated conditions.
   **   ~~~   ** ... Curve output at rated conditions = 0.152
   ************* Beginning System Sizing Calculations
   ************* Beginning Plant Sizing Calculations
   ** Warning ** SizeDXCoil Coil:Cooling:DX:SingleSpeed DX_COOLING_COIL
   **   ~~~   ** ...Gross Rated Total Cooling Capacity [W] will be limited by the maximum rated volume flow per rated total capacity ratio.
   **   ~~~   ** ...DX coil volume flow rate ( m3/s ) = 0.502412
   **   ~~~   ** ...Requested capacity ( W ) = 6858.274
   **   ~~~   ** ...Requested flow/capacity ratio ( m3/s/W ) = 7.325E-005
   **   ~~~   ** ...Maximum flow/capacity ratio ( m3/s/W ) = 6.041E-005
   **   ~~~   ** ...Adjusted capacity ( W ) = 8316.706
   ** Warning ** Coil:WaterHeating:AirToWaterHeatPump:Wrapped "HEAT PUMP WATER HEATER EVAPORATOR": Rated air volume flow rate per watt of rated total water heating capacity is out of range
   **   ~~~   ** Min Rated Vol Flow Per Watt=[4.027E-005], Rated Vol Flow Per Watt=[1.510E-004], Max Rated Vol Flow Per Watt=[8.056E-005]. See Input-Output Reference Manual for valid range.
   ************* SizeFan: : Potential issue with equipment sizing for Fan:OnOff HEAT PUMP WATER HEATER FAN
   **   ~~~   ** User-Specified Maximum Flow Rate [m3/s] = 0.22653
   **   ~~~   ** differs from Design Size Maximum Flow Rate [m3/s] = 7.55250E-002
   **   ~~~   ** This may, or may not, indicate mismatched component sizes.
   **   ~~~   ** Verify that the value entered is intended and is consistent with other components.
   ** Warning ** Water heater = WATER HEATER TANK:  Recovery Efficiency and Energy Factor could not be calculated during the test for standard ratings
   **   ~~~   ** Setpoint was never recovered and/or heater never turned on
   ** Warning ** Check input. Pump nominal power or motor efficiency is set to 0, for pump=MAINS PRESSURE
   ** Warning ** Output:Meter: invalid Key Name="ELECTRIC_RANGE:INTERIOREQUIPMENT:ELECTRICITY" - not found.
   ** Warning ** Output:Meter: invalid Key Name="ELECTRIC_DRYER:INTERIOREQUIPMENT:ELECTRICITY" - not found.
   ** Warning ** Output:Meter: invalid Key Name="HEATRECOVERY:ELECTRICITY" - not found.
   ** Warning ** Output:Meter: invalid Key Name="HEATING:NATURALGAS" - not found.
   ** Warning ** Output:Meter: invalid Key Name="WATERSYSTEMS:NATURALGAS" - not found.
   ** Warning ** Output:Meter: invalid Key Name="PROPANE:FACILITY" - not found.
   ** Warning ** Output:Meter: invalid Key Name="HEATING:PROPANE" - not found.
   ************* Testing Individual Branch Integrity
   ************* All Branches passed integrity testing
   ************* Testing Individual Supply Air Path Integrity
   ************* All Supply Air Paths passed integrity testing
   ************* Testing Individual Return Air Path Integrity
   ************* All Return Air Paths passed integrity testing
   ************* No node connection errors were found.
   ************* Beginning Simulation
   ** Warning ** AirflowNetwork::Solver::validate_distribution: Heat pump water heater is simulated along with an AirflowNetwork but is not included in the AirflowNetwork.
   ** Severe  ** CheckWarmupConvergence: Loads Initialization, Zone="ATTIC" did not converge after 25 warmup days.
   **   ~~~   ** See Warmup Convergence Information in .eio file for details.
   **   ~~~   ** ...Environment(SizingPeriod)="EXTREME_WINTER"
   **   ~~~   ** ..Max Temp Comparison = 1.70E-002 vs Temperature Convergence Tolerance=5.00E-002 - Pass Convergence
   **   ~~~   ** ..Min Temp Comparison = 6.08E-002 vs Temperature Convergence Tolerance=5.00E-002 - Fail Convergence
   **   ~~~   ** ..Max Heat Load Comparison = 0.0000 vs Loads Convergence Tolerance=5.00E-002 - Pass Convergence
   **   ~~~   ** ..Max Cool Load Comparison = 0.0000 vs Loads Convergence Tolerance=5.00E-002 - Pass Convergence
   ** Warning ** CalcEquipmentFlowRates: "TOTAL HOT WATER LOAD" - Target water temperature is greater than the hot water temperature by (0.36 C)
   **   ~~~   **  Environment=EXTREME_WINTER, at Simulation time=01/13 06:45 - 07:00
   **   ~~~   ** ...target water temperature     = 53.33 C
   **   ~~~   ** ...hot water temperature        = 52.98 C
   **   ~~~   ** ...Target water temperature should be less than or equal to the hot water temperature. Verify temperature setpoints and schedules.
   ** Warning ** WetBulb not converged after 101 iterations(PsyTwbFnTdbWPb)
   **   ~~~   **  Routine=Unknown, Environment=ANNUAL, at Simulation time=01/08 14:30 - 14:45
   **   ~~~   **  Input Temperature = 5.92
   **   ~~~   **  Input Humidity Ratio= 1.936368E-003
   **   ~~~   **  Input Pressure = 88372.00
   **   ~~~   **  Resultant Temperature= 1.02E-002
   ** Warning ** SimHVAC: Maximum iterations (20) exceeded for all HVAC loops, at ANNUAL, 01/19 11:45 - 12:00
   **   ~~~   ** The solution for one or more of the Air Loop HVAC systems did not appear to converge
   **   ~~~   ** Air System Named = CENTRAL SYSTEM did not converge for mass flow rate
   **   ~~~   ** Check values should be zero. Most Recent values listed first.
   **   ~~~   ** Demand-to-Supply interface mass flow rate check value iteration history trace: 5.479647E-002,5.479647E-002,5.479647E-002,5.479647E-002,5.479647E-002,5.479647E-002,5.479647E-002,5.479647E-002,5.479647E-002,5.479647E-002,
   **   ~~~   ** Supply-to-demand interface deck 1 mass flow rate check value iteration history trace: 5.479647E-002,5.479647E-002,5.479647E-002,5.479647E-002,5.479647E-002,5.479647E-002,5.479647E-002,5.479647E-002,5.479647E-002,5.479647E-002,
   **   ~~~   ** Air System Named = CENTRAL SYSTEM did not converge for energy
   **   ~~~   ** Check values should be zero. Most Recent values listed first.
   **   ~~~   ** Demand-to-Supply interface energy check value iteration history trace: 1085.924024,1085.924024,1085.924024,1085.924024,1085.924024,1085.924024,1085.924024,1085.924024,1085.924024,1085.924024,
   **   ~~~   ** Supply-to-demand interface deck 1 energy check value iteration history trace: 1969.589394,1969.589394,1969.589394,1969.589394,1969.589394,1969.589394,1969.589394,1969.589394,1969.589394,1969.589394,
   ** Warning ** SimHVAC: Maximum iterations (20) exceeded for all HVAC loops, at ANNUAL, 01/26 09:48 - 09:50
   **   ~~~   ** The solution for one or more of the Air Loop HVAC systems did not appear to converge
   **   ~~~   ** Air System Named = CENTRAL SYSTEM did not converge for mass flow rate
   **   ~~~   ** Check values should be zero. Most Recent values listed first.
   **   ~~~   ** Demand-to-Supply interface mass flow rate check value iteration history trace: 6.440591E-002,6.440591E-002,6.440591E-002,6.440591E-002,6.440591E-002,6.440591E-002,6.440591E-002,6.440591E-002,6.440591E-002,6.440591E-002,
   **   ~~~   ** Supply-to-demand interface deck 1 mass flow rate check value iteration history trace: 6.440591E-002,6.440591E-002,6.440591E-002,6.440591E-002,6.440591E-002,6.440591E-002,6.440591E-002,6.440591E-002,6.440591E-002,6.440591E-002,
   **   ~~~   ** Air System Named = CENTRAL SYSTEM did not converge for energy
   **   ~~~   ** Check values should be zero. Most Recent values listed first.
   **   ~~~   ** Demand-to-Supply interface energy check value iteration history trace: 1276.381009,1276.381009,1276.381009,1276.381009,1276.381009,1276.381009,1276.381009,1276.381009,1276.381009,1276.381009,
   **   ~~~   ** Supply-to-demand interface deck 1 energy check value iteration history trace: 2338.260311,2338.260310,2338.260310,2338.260310,2338.260310,2338.260310,2338.260310,2338.260310,2338.260310,2338.260310,
   ** Warning ** SimHVAC: Maximum iterations (20) exceeded for all HVAC loops, at ANNUAL, 01/30 21:00 - 21:15
   **   ~~~   ** The solution for one or more of the Air Loop HVAC systems did not appear to converge
   **   ~~~   ** Air System Named = CENTRAL SYSTEM did not converge for mass flow rate
   **   ~~~   ** Check values should be zero. Most Recent values listed first.
   **   ~~~   ** Demand-to-Supply interface mass flow rate check value iteration history trace: 8.383637E-002,8.383637E-002,8.383637E-002,8.383637E-002,8.383637E-002,8.383637E-002,8.383637E-002,8.383637E-002,8.383637E-002,8.383637E-002,
   **   ~~~   ** Supply-to-demand interface deck 1 mass flow rate check value iteration history trace: 8.383637E-002,8.383637E-002,8.383637E-002,8.383637E-002,8.383637E-002,8.383637E-002,8.383637E-002,8.383637E-002,8.383637E-002,8.383637E-002,
   **   ~~~   ** Air System Named = CENTRAL SYSTEM did not converge for energy
   **   ~~~   ** Check values should be zero. Most Recent values listed first.
   **   ~~~   ** Demand-to-Supply interface energy check value iteration history trace: 1661.150655,1661.150655,1661.150655,1661.150655,1661.150655,1661.150655,1661.150655,1661.150655,1661.150655,1661.150655,
   **   ~~~   ** Supply-to-demand interface deck 1 energy check value iteration history trace: 2581.719098,2581.719098,2581.719098,2581.719098,2581.719097,2581.719097,2581.719097,2581.719097,2581.719097,2581.719097,
   ** Warning ** SimHVAC: Maximum iterations (20) exceeded for all HVAC loops, at ANNUAL, 02/07 11:04 - 11:06
   **   ~~~   ** The solution for one or more of the Air Loop HVAC systems did not appear to converge
   **   ~~~   ** Air System Named = CENTRAL SYSTEM did not converge for mass flow rate
   **   ~~~   ** Check values should be zero. Most Recent values listed first.
   **   ~~~   ** Demand-to-Supply interface mass flow rate check value iteration history trace: 5.493277E-002,5.493277E-002,5.493277E-002,5.493277E-002,5.493277E-002,5.493277E-002,5.493277E-002,5.493277E-002,5.493277E-002,5.493277E-002,
   **   ~~~   ** Supply-to-demand interface deck 1 mass flow rate check value iteration history trace: 5.493277E-002,5.493277E-002,5.493277E-002,5.493277E-002,5.493277E-002,5.493277E-002,5.493277E-002,5.493277E-002,5.493277E-002,5.493277E-002,
   **   ~~~   ** Air System Named = CENTRAL SYSTEM did not converge for energy
   **   ~~~   ** Check values should be zero. Most Recent values listed first.
   **   ~~~   ** Demand-to-Supply interface energy check value iteration history trace: 1084.102251,1084.102251,1084.102251,1084.102251,1084.102251,1084.102251,1084.102251,1084.102251,1084.102251,1084.102251,
   **   ~~~   ** Supply-to-demand interface deck 1 energy check value iteration history trace: 1971.926317,1971.926317,1971.926317,1971.926317,1971.926317,1971.926317,1971.926317,1971.926317,1971.926317,1971.926317,
   ** Warning ** SimHVAC: Maximum iterations (20) exceeded for all HVAC loops, at ANNUAL, 02/08 23:25 - 23:30
   **   ~~~   ** The solution for one or more of the Air Loop HVAC systems did not appear to converge
   **   ~~~   ** Air System Named = CENTRAL SYSTEM did not converge for mass flow rate
   **   ~~~   ** Check values should be zero. Most Recent values listed first.
   **   ~~~   ** Demand-to-Supply interface mass flow rate check value iteration history trace: 6.234112E-002,6.234112E-002,6.234112E-002,6.234112E-002,6.234112E-002,6.234112E-002,6.234112E-002,6.234112E-002,6.234112E-002,6.234112E-002,
   **   ~~~   ** Supply-to-demand interface deck 1 mass flow rate check value iteration history trace: 6.234112E-002,6.234112E-002,6.234112E-002,6.234112E-002,6.234112E-002,6.234112E-002,6.234112E-002,6.234112E-002,6.234112E-002,6.234112E-002,
   **   ~~~   ** Air System Named = CENTRAL SYSTEM did not converge for energy
   **   ~~~   ** Check values should be zero. Most Recent values listed first.
   **   ~~~   ** Demand-to-Supply interface energy check value iteration history trace: 1157.446874,1157.446874,1157.446874,1157.446873,1157.446873,1157.446873,1157.446873,1157.446873,1157.446873,1157.446873,
   **   ~~~   ** Supply-to-demand interface deck 1 energy check value iteration history trace: 1969.094403,1969.094403,1969.094403,1969.094403,1969.094403,1969.094403,1969.094403,1969.094403,1969.094403,1969.094403,
   ** Warning ** SimHVAC: Maximum iterations (20) exceeded for all HVAC loops, at ANNUAL, 02/15 00:15 - 00:30
   **   ~~~   ** The solution for one or more of the Air Loop HVAC systems did not appear to converge
   **   ~~~   ** Air System Named = CENTRAL SYSTEM did not converge for mass flow rate
   **   ~~~   ** Check values should be zero. Most Recent values listed first.
   **   ~~~   ** Demand-to-Supply interface mass flow rate check value iteration history trace: 5.623489E-002,5.623489E-002,5.623489E-002,5.623489E-002,5.623489E-002,5.623489E-002,5.623489E-002,5.623489E-002,5.623489E-002,5.623489E-002,
   **   ~~~   ** Supply-to-demand interface deck 1 mass flow rate check value iteration history trace: 5.623489E-002,5.623489E-002,5.623489E-002,5.623489E-002,5.623489E-002,5.623489E-002,5.623489E-002,5.623489E-002,5.623489E-002,5.623489E-002,
   **   ~~~   ** Air System Named = CENTRAL SYSTEM did not converge for energy
   **   ~~~   ** Check values should be zero. Most Recent values listed first.
   **   ~~~   ** Demand-to-Supply interface energy check value iteration history trace: 1049.999342,1049.999342,1049.999342,1049.999342,1049.999342,1049.999342,1049.999341,1049.999341,1049.999341,1049.999341,
   **   ~~~   ** Supply-to-demand interface deck 1 energy check value iteration history trace: 1781.266554,1781.266554,1781.266554,1781.266554,1781.266554,1781.266554,1781.266554,1781.266554,1781.266554,1781.266554,
   ** Warning ** SimHVAC: Maximum iterations (20) exceeded for all HVAC loops, at ANNUAL, 03/01 09:41 - 09:43
   **   ~~~   ** The solution for one or more of the Air Loop HVAC systems did not appear to converge
   **   ~~~   ** Air System Named = CENTRAL SYSTEM did not converge for mass flow rate
   **   ~~~   ** Check values should be zero. Most Recent values listed first.
   **   ~~~   ** Demand-to-Supply interface mass flow rate check value iteration history trace: 5.945047E-002,5.945047E-002,5.945047E-002,5.945047E-002,5.945047E-002,5.945047E-002,5.945047E-002,5.945047E-002,5.945047E-002,5.945047E-002,
   **   ~~~   ** Supply-to-demand interface deck 1 mass flow rate check value iteration history trace: 5.945047E-002,5.945047E-002,5.945047E-002,5.945047E-002,5.945047E-002,5.945047E-002,5.945047E-002,5.945047E-002,5.945047E-002,5.945047E-002,
   **   ~~~   ** Air System Named = CENTRAL SYSTEM did not converge for energy
   **   ~~~   ** Check values should be zero. Most Recent values listed first.
   **   ~~~   ** Demand-to-Supply interface energy check value iteration history trace: 1175.334318,1175.334318,1175.334318,1175.334318,1175.334318,1175.334318,1175.334318,1175.334318,1175.334318,1175.334318,
   **   ~~~   ** Supply-to-demand interface deck 1 energy check value iteration history trace: 2121.190334,2121.190334,2121.190334,2121.190334,2121.190334,2121.190334,2121.190334,2121.190334,2121.190334,2121.190334,
   ** Warning ** SimHVAC: Maximum iterations (20) exceeded for all HVAC loops, at ANNUAL, 03/12 08:13 - 08:15
   **   ~~~   ** The solution for one or more of the Air Loop HVAC systems did not appear to converge
   **   ~~~   ** Air System Named = CENTRAL SYSTEM did not converge for mass flow rate
   **   ~~~   ** Check values should be zero. Most Recent values listed first.
   **   ~~~   ** Demand-to-Supply interface mass flow rate check value iteration history trace: 4.049278E-002,4.049278E-002,4.049278E-002,4.049278E-002,4.049278E-002,4.049278E-002,4.049278E-002,4.049278E-002,4.049278E-002,4.049278E-002,
   **   ~~~   ** Supply-to-demand interface deck 1 mass flow rate check value iteration history trace: 4.049278E-002,4.049278E-002,4.049278E-002,4.049278E-002,4.049278E-002,4.049278E-002,4.049278E-002,4.049278E-002,4.049278E-002,4.049278E-002,
   **   ~~~   ** Air System Named = CENTRAL SYSTEM did not converge for energy
   **   ~~~   ** Check values should be zero. Most Recent values listed first.
   **   ~~~   ** Demand-to-Supply interface energy check value iteration history trace: 799.180911,799.180911,799.180911,799.180911,799.180911,799.180911,799.180911,799.180911,799.180911,799.180911,
   **   ~~~   ** Supply-to-demand interface deck 1 energy check value iteration history trace: 1556.732844,1556.732844,1556.732844,1556.732844,1556.732844,1556.732844,1556.732844,1556.732844,1556.732844,1556.732844,
   ** Warning ** SimHVAC: Maximum iterations (20) exceeded for all HVAC loops, at ANNUAL, 04/07 08:17 - 08:18
   **   ~~~   ** The solution for one or more of the Air Loop HVAC systems did not appear to converge
   **   ~~~   ** Air System Named = CENTRAL SYSTEM did not converge for mass flow rate
   **   ~~~   ** Check values should be zero. Most Recent values listed first.
   **   ~~~   ** Demand-to-Supply interface mass flow rate check value iteration history trace: 6.860983E-002,6.860983E-002,6.860983E-002,6.860983E-002,6.860983E-002,6.860983E-002,6.860983E-002,6.860983E-002,6.860983E-002,6.860983E-002,
   **   ~~~   ** Supply-to-demand interface deck 1 mass flow rate check value iteration history trace: 6.860983E-002,6.860983E-002,6.860983E-002,6.860983E-002,6.860983E-002,6.860983E-002,6.860983E-002,6.860983E-002,6.860983E-002,6.860983E-002,
   **   ~~~   ** Air System Named = CENTRAL SYSTEM did not converge for energy
   **   ~~~   ** Check values should be zero. Most Recent values listed first.
   **   ~~~   ** Demand-to-Supply interface energy check value iteration history trace: 1359.725098,1359.725098,1359.725098,1359.725098,1359.725098,1359.725098,1359.725098,1359.725098,1359.725098,1359.725098,
   **   ~~~   ** Supply-to-demand interface deck 1 energy check value iteration history trace: 2241.463206,2241.463206,2241.463206,2241.463206,2241.463206,2241.463206,2241.463206,2241.463205,2241.463205,2241.463205,
   ** Warning ** SimHVAC: Maximum iterations (20) exceeded for all HVAC loops, at ANNUAL, 04/15 11:15 - 11:30
   **   ~~~   ** The solution for one or more of the Air Loop HVAC systems did not appear to converge
   **   ~~~   ** Air System Named = CENTRAL SYSTEM did not converge for mass flow rate
   **   ~~~   ** Check values should be zero. Most Recent values listed first.
   **   ~~~   ** Demand-to-Supply interface mass flow rate check value iteration history trace: 5.914071E-002,5.914071E-002,5.914071E-002,5.914071E-002,5.914071E-002,5.914071E-002,5.914071E-002,5.914071E-002,5.914071E-002,5.914071E-002,
   **   ~~~   ** Supply-to-demand interface deck 1 mass flow rate check value iteration history trace: 5.914071E-002,5.914071E-002,5.914071E-002,5.914071E-002,5.914071E-002,5.914071E-002,5.914071E-002,5.914071E-002,5.914071E-002,5.914071E-002,
   **   ~~~   ** Air System Named = CENTRAL SYSTEM did not converge for energy
   **   ~~~   ** Check values should be zero. Most Recent values listed first.
   **   ~~~   ** Demand-to-Supply interface energy check value iteration history trace: 1172.858104,1172.858104,1172.858104,1172.858104,1172.858104,1172.858104,1172.858104,1172.858104,1172.858104,1172.858104,
   **   ~~~   ** Supply-to-demand interface deck 1 energy check value iteration history trace: 2161.637251,2161.637251,2161.637251,2161.637251,2161.637251,2161.637251,2161.637251,2161.637251,2161.637251,2161.637250,
   ** Warning ** SimHVAC: Maximum iterations (20) exceeded for all HVAC loops, at ANNUAL, 04/18 06:15 - 06:30
   **   ~~~   ** The solution for one or more of the Air Loop HVAC systems did not appear to converge
   **   ~~~   ** Air System Named = CENTRAL SYSTEM did not converge for mass flow rate
   **   ~~~   ** Check values should be zero. Most Recent values listed first.
   **   ~~~   ** Demand-to-Supply interface mass flow rate check value iteration history trace: 6.029949E-002,6.029949E-002,6.029949E-002,6.029949E-002,6.029949E-002,6.029949E-002,6.029949E-002,6.029949E-002,6.029949E-002,6.029949E-002,
   **   ~~~   ** Supply-to-demand interface deck 1 mass flow rate check value iteration history trace: 6.029949E-002,6.029949E-002,6.029949E-002,6.029949E-002,6.029949E-002,6.029949E-002,6.029949E-002,6.029949E-002,6.029949E-002,6.029949E-002,
   **   ~~~   ** Air System Named = CENTRAL SYSTEM did not converge for energy
   **   ~~~   ** Check values should be zero. Most Recent values listed first.
   **   ~~~   ** Demand-to-Supply interface energy check value iteration history trace: 1175.511008,1175.511008,1175.511008,1175.511008,1175.511008,1175.511008,1175.511008,1175.511008,1175.511008,1175.511008,
   **   ~~~   ** Supply-to-demand interface deck 1 energy check value iteration history trace: 2112.065651,2112.065651,2112.065651,2112.065651,2112.065650,2112.065650,2112.065650,2112.065650,2112.065650,2112.065650,
   ** Warning ** SimHVAC: Maximum iterations (20) exceeded for all HVAC loops, at ANNUAL, 05/03 09:43 - 09:45
   **   ~~~   ** The solution for one or more of the Air Loop HVAC systems did not appear to converge
   **   ~~~   ** Air System Named = CENTRAL SYSTEM did not converge for mass flow rate
   **   ~~~   ** Check values should be zero. Most Recent values listed first.
   **   ~~~   ** Demand-to-Supply interface mass flow rate check value iteration history trace: 0.214528,0.214528,0.214528,0.214528,0.214528,0.214528,0.214528,0.214528,0.214528,0.214528,
   **   ~~~   ** Supply-to-demand interface deck 1 mass flow rate check value iteration history trace: 0.214528,0.214528,0.214528,0.214528,0.214528,0.214528,0.214528,0.214528,0.214528,0.214528,
   **   ~~~   ** Air System Named = CENTRAL SYSTEM did not converge for energy
   **   ~~~   ** Check values should be zero. Most Recent values listed first.
   **   ~~~   ** Demand-to-Supply interface energy check value iteration history trace: 5127.834990,5127.834991,5127.834991,5127.834992,5127.834993,5127.834993,5127.834994,5127.834995,5127.834995,5127.834996,
   **   ~~~   ** Supply-to-demand interface deck 1 energy check value iteration history trace: 1799.479280,1799.479280,1799.479280,1799.479281,1799.479281,1799.479281,1799.479281,1799.479281,1799.479282,1799.479282,
   ** Warning ** SimHVAC: Maximum iterations (20) exceeded for all HVAC loops, at ANNUAL, 05/06 18:00 - 18:15
   **   ~~~   ** The solution for one or more of the Air Loop HVAC systems did not appear to converge
   **   ~~~   ** Air System Named = CENTRAL SYSTEM did not converge for mass flow rate
   **   ~~~   ** Check values should be zero. Most Recent values listed first.
   **   ~~~   ** Demand-to-Supply interface mass flow rate check value iteration history trace: 8.689919E-002,8.689919E-002,8.689919E-002,8.689919E-002,8.689919E-002,8.689919E-002,8.689919E-002,8.689919E-002,8.689919E-002,8.689919E-002,
   **   ~~~   ** Supply-to-demand interface deck 1 mass flow rate check value iteration history trace: 8.689919E-002,8.689919E-002,8.689919E-002,8.689919E-002,8.689919E-002,8.689919E-002,8.689919E-002,8.689919E-002,8.689919E-002,8.689919E-002,
   **   ~~~   ** Air System Named = CENTRAL SYSTEM did not converge for energy
   **   ~~~   ** Check values should be zero. Most Recent values listed first.
   **   ~~~   ** Demand-to-Supply interface energy check value iteration history trace: 2077.094536,2077.094536,2077.094537,2077.094537,2077.094537,2077.094537,2077.094537,2077.094537,2077.094537,2077.094537,
   **   ~~~   ** Supply-to-demand interface deck 1 energy check value iteration history trace: 646.080729,646.080729,646.080729,646.080729,646.080729,646.080729,646.080729,646.080729,646.080729,646.080729,
   ** Warning ** SimHVAC: Maximum iterations (20) exceeded for all HVAC loops, at ANNUAL, 05/11 13:23 - 13:30
   **   ~~~   ** The solution for one or more of the Air Loop HVAC systems did not appear to converge
   **   ~~~   ** Air System Named = CENTRAL SYSTEM did not converge for mass flow rate
   **   ~~~   ** Check values should be zero. Most Recent values listed first.
   **   ~~~   ** Demand-to-Supply interface mass flow rate check value iteration history trace: 4.431939E-002,4.431939E-002,4.431939E-002,4.431939E-002,4.431939E-002,4.431939E-002,4.431939E-002,4.431939E-002,4.431939E-002,4.431939E-002,
   **   ~~~   ** Supply-to-demand interface deck 1 mass flow rate check value iteration history trace: 4.431939E-002,4.431939E-002,4.431939E-002,4.431939E-002,4.431939E-002,4.431939E-002,4.431939E-002,4.431939E-002,4.431939E-002,4.431939E-002,
   **   ~~~   ** Air System Named = CENTRAL SYSTEM did not converge for energy
   **   ~~~   ** Check values should be zero. Most Recent values listed first.
   **   ~~~   ** Demand-to-Supply interface energy check value iteration history trace: 1042.808079,1042.808079,1042.808079,1042.808079,1042.808079,1042.808079,1042.808080,1042.808080,1042.808080,1042.808080,
   **   ~~~   ** Supply-to-demand interface deck 1 energy check value iteration history trace: 323.631864,323.631864,323.631864,323.631864,323.631864,323.631864,323.631864,323.631864,323.631864,323.631864,
   ** Warning ** Temperature out of range [-100. to 200.] (PsyPsatFnTemp)
   **   ~~~   **  Routine=PsyTwbFnTdbWPb, Environment=ANNUAL, at Simulation time=12/06 16:30 - 16:38
   **   ~~~   **  Input Temperature=-429.51
   ************* Simulation Error Summary *************
   ** Warning ** The following Report Variables were requested but not generated -- check.rdd file
   **   ~~~   ** Either the IDF did not contain these elements, the variable name is misspelled,
   **   ~~~   ** or the requested variable is an advanced output which requires Output : Diagnostics, DisplayAdvancedReportVariables;
   ************* Key=*, VarName=BASEBOARD TOTAL HEATING ENERGY, Frequency=
   ************* Key=*, VarName=WATER HEATER NATURALGAS ENERGY, Frequency=
   ************* Key=*, VarName=COOLING COIL TOTAL HEATING ENERGY, Frequency=
   ************* There are 34 unused schedules in input.
   ************* There are 388 unused week schedules in input.
   ************* There are 397 unused day schedules in input.
   ************* Use Output:Diagnostics,DisplayUnusedSchedules; to see them.
   *************
   ************* ===== Recurring Error Summary =====
   ************* The following recurring error messages occurred.
   *************
   *************  ** Warning ** "TOTAL HOT WATER LOAD" - Target water temperature should be less than or equal to the hot water temperature error continues...
   *************  **   ~~~   **   This error occurred 152779 total times;
   *************  **   ~~~   **   during Warmup 0 times;
   *************  **   ~~~   **   during Sizing 0 times.
   *************  **   ~~~   **   Max=9.519372  Min=6.194124E-004
   *************
   *************  ** Warning ** WetBulb not converged after max iterations(PsyTwbFnTdbWPb)
   *************  **   ~~~   **   This error occurred 2 total times;
   *************  **   ~~~   **   during Warmup 0 times;
   *************  **   ~~~   **   during Sizing 0 times.
   *************
   *************  ** Warning ** SimHVAC: Exceeding Maximum iterations for all HVAC loops, during ANNUAL continues
   *************  **   ~~~   **   This error occurred 16 total times;
   *************  **   ~~~   **   during Warmup 0 times;
   *************  **   ~~~   **   during Sizing 0 times.
   *************
   *************  ** Warning ** Temperature out of range [-100. to 200.] (PsyPsatFnTemp)
   *************  **   ~~~   **   This error occurred 6 total times;
   *************  **   ~~~   **   during Warmup 0 times;
   *************  **   ~~~   **   during Sizing 0 times.
   *************  **   ~~~   **   Max=-256.411163 C  Min=-429.839966 C
   *************
   *************
   ************* ===== Final Error Summary =====
   ************* The following error categories occurred.  Consider correcting or noting.
   ************* Loads Initialization did not Converge
   ************* ..1) very high thermal mass such as very thick concrete (solution: increase max number of warmup
   ************* ..   days in the BUILDING object);
   ************* ..2) moderate mass and inadequate space conditioning such that the building keeps getting warmer
   ************* ..   and warmer on successive days (solution: add HVAC, check building thermal properties,
   ************* ..   check if infiltration is included, make sure HVAC properly controlled);
   ************* ..3) a soil layer modeled below the concrete slab - (solution remove this layer and read about
   ************* ..   ground temperatures in the Auxiliary Programs document).
   ************* ..4) unreasonable (too small) limits in the BUILDING object for temperature (.4 default) or
   ************* ..   loads tolerances (.04 default)
   ************* Nominally Unused Constructions
   ************* ..The nominally unused constructions warning is provided to alert you to potential conditions that can cause
   ************* ..extra time during simulation. Each construction is calculated by the algorithm indicated in the HeatBalanceAlgorithm
   ************* ..object. You may remove the constructions indicated (when you use the DisplayExtraWarnings option).
   *************
   ************* EnergyPlus Warmup Error Summary. During Warmup: 1 Warning; 1 Severe Errors.
   ************* EnergyPlus Sizing Error Summary. During Sizing: 4 Warning; 0 Severe Errors.
   ************* EnergyPlus Completed Successfully-- 152835 Warning; 1 Severe Errors; Elapsed Time=00hr 02min  5.14sec
