Program Version,EnergyPlus, Version 22.2.0-c249759bad, YMD=2023.08.31 12:58,
   ************* Beginning Zone Sizing Calculations
   ** Warning ** ProcessScheduleInput: Schedule:Constant="ALWAYS ON DISCRETE", Schedule Type Limits Name="ONOFF" not found -- will not be validated
   ** Warning ** Foundation:Kiva="KIVA FOUNDATION", no Interior Horizontal Insulation Material Name defined
   **   ~~~   ** Interior Horizontal Insulation Depth will not be used.
   ** Warning ** CheckUsedConstructions: There are 15 nominally unused constructions in input.
   **   ~~~   ** Each Unused construction is shown.
   ************* Construction=INTERIOR FLOOR
   ************* Construction=INTERIOR WINDOW
   ************* Construction=EXTERIOR DOOR
   ************* Construction=INTERIOR DOOR
   ************* Construction=GABLE CONSTRUCTION
   ************* Construction=CRAWL_FLOOR
   ************* Construction=INSULATED PIPE
   ************* Construction=PLAIN PIPE
   ************* Construction=TDD PIPE
   ************* Construction=TDD DOME
   ************* Construction=TDD DIFFUSER
   ************* Construction=CRAWL WALL
   ************* Construction=CEILING-FLOOR-LAYER
   ************* Construction=SLAB CONSTRUCTION W FULL R10 INSULATION
   ************* Construction=SLAB CONSTRUCTION W FULL R5 INSULATION
   ** Warning ** GetDXCoils: Coil:Heating:DX:SingleSpeed="DX_HEATING_COIL" curve values
   **   ~~~   ** ... Defrost Energy Input Ratio Function of Temperature Curve Name = DEFROSTEIR output is not equal to 1.0 (+ or - 10%) at rated conditions.
   **   ~~~   ** ... Curve output at rated conditions = 0.152
   ************* Beginning System Sizing Calculations
   ************* Beginning Plant Sizing Calculations
   ** Warning ** SizeDXCoil Coil:Cooling:DX:SingleSpeed DX_COOLING_COIL
   **   ~~~   ** ...Gross Rated Total Cooling Capacity [W] will be limited by the maximum rated volume flow per rated total capacity ratio.
   **   ~~~   ** ...DX coil volume flow rate ( m3/s ) = 0.424574
   **   ~~~   ** ...Requested capacity ( W ) = 6547.070
   **   ~~~   ** ...Requested flow/capacity ratio ( m3/s/W ) = 6.484E-005
   **   ~~~   ** ...Maximum flow/capacity ratio ( m3/s/W ) = 6.041E-005
   **   ~~~   ** ...Adjusted capacity ( W ) = 7028.217
   ** Warning ** Coil:WaterHeating:AirToWaterHeatPump:Wrapped "HEAT PUMP WATER HEATER EVAPORATOR": Rated air volume flow rate per watt of rated total water heating capacity is out of range
   **   ~~~   ** Min Rated Vol Flow Per Watt=[4.027E-005], Rated Vol Flow Per Watt=[1.386E-004], Max Rated Vol Flow Per Watt=[8.056E-005]. See Input-Output Reference Manual for valid range.
   ** Warning ** Water heater = WATER HEATER TANK:  Recovery Efficiency and Energy Factor could not be calculated during the test for standard ratings
   **   ~~~   ** Setpoint was never recovered and/or heater never turned on
   ** Warning ** Check input. Pump nominal power or motor efficiency is set to 0, for pump=MAINS PRESSURE
   ** Warning ** Output:Meter: invalid Key Name="ELECTRIC_RANGE:INTERIOREQUIPMENT:ELECTRICITY" - not found.
   ** Warning ** Output:Meter: invalid Key Name="ELECTRIC_DRYER:INTERIOREQUIPMENT:ELECTRICITY" - not found.
   ** Warning ** Output:Meter: invalid Key Name="HEATRECOVERY:ELECTRICITY" - not found.
   ** Warning ** Output:Meter: invalid Key Name="HEATING:NATURALGAS" - not found.
   ** Warning ** Output:Meter: invalid Key Name="WATERSYSTEMS:NATURALGAS" - not found.
   ** Warning ** Output:Meter: invalid Key Name="PROPANE:FACILITY" - not found.
   ** Warning ** Output:Meter: invalid Key Name="HEATING:PROPANE" - not found.
   ************* Testing Individual Branch Integrity
   ************* All Branches passed integrity testing
   ************* Testing Individual Supply Air Path Integrity
   ************* All Supply Air Paths passed integrity testing
   ************* Testing Individual Return Air Path Integrity
   ************* All Return Air Paths passed integrity testing
   ************* No node connection errors were found.
   ************* Beginning Simulation
   ** Warning ** AirflowNetwork::Solver::validate_distribution: Heat pump water heater is simulated along with an AirflowNetwork but is not included in the AirflowNetwork.
   ** Warning ** CalcEquipmentFlowRates: "TOTAL HOT WATER LOAD" - Target water temperature is greater than the hot water temperature by (1.33 C)
   **   ~~~   **  Environment=EXTREME_WINTER, at Simulation time=02/10 03:45 - 04:00
   **   ~~~   ** ...target water temperature     = 53.33 C
   **   ~~~   ** ...hot water temperature        = 52.01 C
   **   ~~~   ** ...Target water temperature should be less than or equal to the hot water temperature. Verify temperature setpoints and schedules.
   ** Warning ** SimHVAC: Maximum iterations (20) exceeded for all HVAC loops, at ANNUAL, 02/03 12:00 - 12:15
   **   ~~~   ** The solution for one or more of the Air Loop HVAC systems did not appear to converge
   **   ~~~   ** Air System Named = CENTRAL SYSTEM did not converge for mass flow rate
   **   ~~~   ** Check values should be zero. Most Recent values listed first.
   **   ~~~   ** Demand-to-Supply interface mass flow rate check value iteration history trace: 6.100138E-002,6.100138E-002,6.100138E-002,6.100138E-002,6.100138E-002,6.100138E-002,6.100138E-002,6.100138E-002,6.100138E-002,6.100138E-002,
   **   ~~~   ** Supply-to-demand interface deck 1 mass flow rate check value iteration history trace: 6.100138E-002,6.100138E-002,6.100138E-002,6.100138E-002,6.100138E-002,6.100138E-002,6.100138E-002,6.100138E-002,6.100138E-002,6.100138E-002,
   **   ~~~   ** Air System Named = CENTRAL SYSTEM did not converge for energy
   **   ~~~   ** Check values should be zero. Most Recent values listed first.
   **   ~~~   ** Demand-to-Supply interface energy check value iteration history trace: 1200.164116,1200.164114,1200.164113,1200.164111,1200.164110,1200.164109,1200.164107,1200.164106,1200.164104,1200.164103,
   **   ~~~   ** Supply-to-demand interface deck 1 energy check value iteration history trace: 2112.387780,2112.387778,2112.387775,2112.387773,2112.387770,2112.387768,2112.387765,2112.387763,2112.387760,2112.387758,
   ** Warning ** SimHVAC: Maximum iterations (20) exceeded for all HVAC loops, at ANNUAL, 02/23 08:30 - 08:34
   **   ~~~   ** The solution for one or more of the Air Loop HVAC systems did not appear to converge
   **   ~~~   ** Air System Named = CENTRAL SYSTEM did not converge for mass flow rate
   **   ~~~   ** Check values should be zero. Most Recent values listed first.
   **   ~~~   ** Demand-to-Supply interface mass flow rate check value iteration history trace: 6.595049E-002,6.595049E-002,6.595049E-002,6.595049E-002,6.595049E-002,6.595049E-002,6.595049E-002,6.595049E-002,6.595049E-002,6.595049E-002,
   **   ~~~   ** Supply-to-demand interface deck 1 mass flow rate check value iteration history trace: 6.595049E-002,6.595049E-002,6.595049E-002,6.595049E-002,6.595049E-002,6.595049E-002,6.595049E-002,6.595049E-002,6.595049E-002,6.595049E-002,
   **   ~~~   ** Air System Named = CENTRAL SYSTEM did not converge for energy
   **   ~~~   ** Check values should be zero. Most Recent values listed first.
   **   ~~~   ** Demand-to-Supply interface energy check value iteration history trace: 1306.827922,1306.827922,1306.827921,1306.827920,1306.827920,1306.827919,1306.827919,1306.827918,1306.827918,1306.827917,
   **   ~~~   ** Supply-to-demand interface deck 1 energy check value iteration history trace: 2333.110716,2333.110715,2333.110714,2333.110713,2333.110712,2333.110711,2333.110710,2333.110709,2333.110708,2333.110707,
   ** Warning ** SimHVAC: Maximum iterations (20) exceeded for all HVAC loops, at ANNUAL, 03/12 13:00 - 13:05
   **   ~~~   ** The solution for one or more of the Air Loop HVAC systems did not appear to converge
   **   ~~~   ** Air System Named = CENTRAL SYSTEM did not converge for mass flow rate
   **   ~~~   ** Check values should be zero. Most Recent values listed first.
   **   ~~~   ** Demand-to-Supply interface mass flow rate check value iteration history trace: 7.065596E-002,7.065596E-002,7.065596E-002,7.065596E-002,7.065596E-002,7.065596E-002,7.065596E-002,7.065596E-002,7.065596E-002,7.065596E-002,
   **   ~~~   ** Supply-to-demand interface deck 1 mass flow rate check value iteration history trace: 7.065596E-002,7.065596E-002,7.065596E-002,7.065596E-002,7.065596E-002,7.065596E-002,7.065596E-002,7.065596E-002,7.065596E-002,7.065596E-002,
   **   ~~~   ** Air System Named = CENTRAL SYSTEM did not converge for energy
   **   ~~~   ** Check values should be zero. Most Recent values listed first.
   **   ~~~   ** Demand-to-Supply interface energy check value iteration history trace: 1400.115966,1400.115965,1400.115964,1400.115963,1400.115963,1400.115962,1400.115961,1400.115960,1400.115959,1400.115958,
   **   ~~~   ** Supply-to-demand interface deck 1 energy check value iteration history trace: 2538.043777,2538.043776,2538.043774,2538.043773,2538.043771,2538.043770,2538.043768,2538.043766,2538.043765,2538.043763,
   ** Warning ** SimHVAC: Maximum iterations (20) exceeded for all HVAC loops, at ANNUAL, 03/28 07:45 - 08:00
   **   ~~~   ** The solution for one or more of the Air Loop HVAC systems did not appear to converge
   **   ~~~   ** Air System Named = CENTRAL SYSTEM did not converge for mass flow rate
   **   ~~~   ** Check values should be zero. Most Recent values listed first.
   **   ~~~   ** Demand-to-Supply interface mass flow rate check value iteration history trace: 4.100411E-002,4.100411E-002,4.100411E-002,4.100411E-002,4.100411E-002,4.100411E-002,4.100411E-002,4.100411E-002,4.100411E-002,4.100411E-002,
   **   ~~~   ** Supply-to-demand interface deck 1 mass flow rate check value iteration history trace: 4.100411E-002,4.100411E-002,4.100411E-002,4.100411E-002,4.100411E-002,4.100411E-002,4.100411E-002,4.100411E-002,4.100411E-002,4.100411E-002,
   **   ~~~   ** Air System Named = CENTRAL SYSTEM did not converge for energy
   **   ~~~   ** Check values should be zero. Most Recent values listed first.
   **   ~~~   ** Demand-to-Supply interface energy check value iteration history trace: 812.511214,812.511213,812.511213,812.511212,812.511212,812.511211,812.511211,812.511210,812.511210,812.511209,
   **   ~~~   ** Supply-to-demand interface deck 1 energy check value iteration history trace: 1447.922001,1447.922000,1447.921999,1447.921998,1447.921997,1447.921996,1447.921996,1447.921995,1447.921994,1447.921993,
   ** Warning ** SimHVAC: Maximum iterations (20) exceeded for all HVAC loops, at ANNUAL, 03/28 07:45 - 07:50
   **   ~~~   ** The solution for one or more of the Air Loop HVAC systems did not appear to converge
   **   ~~~   ** Air System Named = CENTRAL SYSTEM did not converge for mass flow rate
   **   ~~~   ** Check values should be zero. Most Recent values listed first.
   **   ~~~   ** Demand-to-Supply interface mass flow rate check value iteration history trace: 6.893462E-002,6.893462E-002,6.893462E-002,6.893462E-002,6.893462E-002,6.893462E-002,6.893462E-002,6.893462E-002,6.893462E-002,6.893462E-002,
   **   ~~~   ** Supply-to-demand interface deck 1 mass flow rate check value iteration history trace: 6.893462E-002,6.893462E-002,6.893462E-002,6.893462E-002,6.893462E-002,6.893462E-002,6.893462E-002,6.893462E-002,6.893462E-002,6.893462E-002,
   **   ~~~   ** Air System Named = CENTRAL SYSTEM did not converge for energy
   **   ~~~   ** Check values should be zero. Most Recent values listed first.
   **   ~~~   ** Demand-to-Supply interface energy check value iteration history trace: 1365.978262,1365.978261,1365.978260,1365.978259,1365.978258,1365.978257,1365.978257,1365.978256,1365.978255,1365.978254,
   **   ~~~   ** Supply-to-demand interface deck 1 energy check value iteration history trace: 2434.104638,2434.104636,2434.104635,2434.104633,2434.104631,2434.104630,2434.104628,2434.104627,2434.104625,2434.104623,
   ** Warning ** SimHVAC: Maximum iterations (20) exceeded for all HVAC loops, at ANNUAL, 10/25 08:30 - 08:34
   **   ~~~   ** The solution for one or more of the Air Loop HVAC systems did not appear to converge
   **   ~~~   ** Air System Named = CENTRAL SYSTEM did not converge for mass flow rate
   **   ~~~   ** Check values should be zero. Most Recent values listed first.
   **   ~~~   ** Demand-to-Supply interface mass flow rate check value iteration history trace: 7.735533E-002,7.735533E-002,7.735533E-002,7.735533E-002,7.735533E-002,7.735533E-002,7.735533E-002,7.735533E-002,7.735533E-002,7.735533E-002,
   **   ~~~   ** Supply-to-demand interface deck 1 mass flow rate check value iteration history trace: 7.735533E-002,7.735533E-002,7.735533E-002,7.735533E-002,7.735533E-002,7.735533E-002,7.735533E-002,7.735533E-002,7.735533E-002,7.735533E-002,
   **   ~~~   ** Air System Named = CENTRAL SYSTEM did not converge for energy
   **   ~~~   ** Check values should be zero. Most Recent values listed first.
   **   ~~~   ** Demand-to-Supply interface energy check value iteration history trace: 1532.870686,1532.870684,1532.870683,1532.870681,1532.870679,1532.870678,1532.870676,1532.870674,1532.870672,1532.870671,
   **   ~~~   ** Supply-to-demand interface deck 1 energy check value iteration history trace: 2638.251583,2638.251580,2638.251577,2638.251574,2638.251571,2638.251568,2638.251565,2638.251562,2638.251560,2638.251557,
   ** Warning ** SimHVAC: Maximum iterations (20) exceeded for all HVAC loops, at ANNUAL, 10/26 08:36 - 08:39
   **   ~~~   ** The solution for one or more of the Air Loop HVAC systems did not appear to converge
   **   ~~~   ** Air System Named = CENTRAL SYSTEM did not converge for mass flow rate
   **   ~~~   ** Check values should be zero. Most Recent values listed first.
   **   ~~~   ** Demand-to-Supply interface mass flow rate check value iteration history trace: 6.679236E-002,6.679236E-002,6.679236E-002,6.679236E-002,6.679236E-002,6.679236E-002,6.679236E-002,6.679236E-002,6.679236E-002,6.679236E-002,
   **   ~~~   ** Supply-to-demand interface deck 1 mass flow rate check value iteration history trace: 6.679236E-002,6.679236E-002,6.679236E-002,6.679236E-002,6.679236E-002,6.679236E-002,6.679236E-002,6.679236E-002,6.679236E-002,6.679236E-002,
   **   ~~~   ** Air System Named = CENTRAL SYSTEM did not converge for energy
   **   ~~~   ** Check values should be zero. Most Recent values listed first.
   **   ~~~   ** Demand-to-Supply interface energy check value iteration history trace: 1323.628028,1323.628027,1323.628026,1323.628025,1323.628024,1323.628023,1323.628022,1323.628021,1323.628020,1323.628019,
   **   ~~~   ** Supply-to-demand interface deck 1 energy check value iteration history trace: 2288.271912,2288.271910,2288.271908,2288.271906,2288.271904,2288.271903,2288.271901,2288.271899,2288.271897,2288.271895,
   ************* Simulation Error Summary *************
   ** Warning ** The following Report Variables were requested but not generated -- check.rdd file
   **   ~~~   ** Either the IDF did not contain these elements, the variable name is misspelled,
   **   ~~~   ** or the requested variable is an advanced output which requires Output : Diagnostics, DisplayAdvancedReportVariables;
   ************* Key=*, VarName=BASEBOARD TOTAL HEATING ENERGY, Frequency=
   ************* Key=*, VarName=WATER HEATER NATURALGAS ENERGY, Frequency=
   ************* Key=*, VarName=COOLING COIL TOTAL HEATING ENERGY, Frequency=
   ************* There are 34 unused schedules in input.
   ************* There are 388 unused week schedules in input.
   ************* There are 396 unused day schedules in input.
   ************* Use Output:Diagnostics,DisplayUnusedSchedules; to see them.
   *************
   ************* ===== Recurring Error Summary =====
   ************* The following recurring error messages occurred.
   *************
   *************  ** Warning ** "TOTAL HOT WATER LOAD" - Target water temperature should be less than or equal to the hot water temperature error continues...
   *************  **   ~~~   **   This error occurred 58277 total times;
   *************  **   ~~~   **   during Warmup 0 times;
   *************  **   ~~~   **   during Sizing 0 times.
   *************  **   ~~~   **   Max=5.819977  Min=1.391358E-004
   *************
   *************
   ************* ===== Final Error Summary =====
   ************* The following error categories occurred.  Consider correcting or noting.
   ************* Nominally Unused Constructions
   ************* ..The nominally unused constructions warning is provided to alert you to potential conditions that can cause
   ************* ..extra time during simulation. Each construction is calculated by the algorithm indicated in the HeatBalanceAlgorithm
   ************* ..object. You may remove the constructions indicated (when you use the DisplayExtraWarnings option).
   *************
   ************* EnergyPlus Warmup Error Summary. During Warmup: 1 Warning; 0 Severe Errors.
   ************* EnergyPlus Sizing Error Summary. During Sizing: 4 Warning; 0 Severe Errors.
   ************* EnergyPlus Completed Successfully-- 58302 Warning; 0 Severe Errors; Elapsed Time=00hr 05min 56.08sec
