Program Version,EnergyPlus, Version 22.2.0-c249759bad, YMD=2023.09.01 19:20,
   ************* Beginning Zone Sizing Calculations
   ** Warning ** ProcessScheduleInput: Schedule:Constant="ALWAYS ON DISCRETE", Schedule Type Limits Name="ONOFF" not found -- will not be validated
   ** Warning ** Foundation:Kiva="KIVA FOUNDATION", no Interior Horizontal Insulation Material Name defined
   **   ~~~   ** Interior Horizontal Insulation Depth will not be used.
   ** Warning ** CheckUsedConstructions: There are 15 nominally unused constructions in input.
   **   ~~~   ** Each Unused construction is shown.
   ************* Construction=INTERIOR FLOOR
   ************* Construction=INTERIOR WINDOW
   ************* Construction=EXTERIOR DOOR
   ************* Construction=INTERIOR DOOR
   ************* Construction=GABLE CONSTRUCTION
   ************* Construction=CRAWL_FLOOR
   ************* Construction=INSULATED PIPE
   ************* Construction=PLAIN PIPE
   ************* Construction=TDD PIPE
   ************* Construction=TDD DOME
   ************* Construction=TDD DIFFUSER
   ************* Construction=CRAWL WALL
   ************* Construction=CEILING-FLOOR-LAYER
   ************* Construction=SLAB CONSTRUCTION W FULL R10 INSULATION
   ************* Construction=SLAB CONSTRUCTION W FULL R5 INSULATION
   ** Warning ** GetDXCoils: Coil:Heating:DX:SingleSpeed="DX_HEATING_COIL" curve values
   **   ~~~   ** ... Defrost Energy Input Ratio Function of Temperature Curve Name = DEFROSTEIR output is not equal to 1.0 (+ or - 10%) at rated conditions.
   **   ~~~   ** ... Curve output at rated conditions = 0.152
   ************* Beginning System Sizing Calculations
   ************* Beginning Plant Sizing Calculations
   ** Warning ** Coil:WaterHeating:AirToWaterHeatPump:Wrapped "HEAT PUMP WATER HEATER EVAPORATOR": Rated air volume flow rate per watt of rated total water heating capacity is out of range
   **   ~~~   ** Min Rated Vol Flow Per Watt=[4.027E-005], Rated Vol Flow Per Watt=[1.510E-004], Max Rated Vol Flow Per Watt=[8.056E-005]. See Input-Output Reference Manual for valid range.
   ************* SizeFan: : Potential issue with equipment sizing for Fan:OnOff HEAT PUMP WATER HEATER FAN
   **   ~~~   ** User-Specified Maximum Flow Rate [m3/s] = 0.22653
   **   ~~~   ** differs from Design Size Maximum Flow Rate [m3/s] = 7.55250E-002
   **   ~~~   ** This may, or may not, indicate mismatched component sizes.
   **   ~~~   ** Verify that the value entered is intended and is consistent with other components.
   ** Warning ** Water heater = WATER HEATER TANK:  Recovery Efficiency and Energy Factor could not be calculated during the test for standard ratings
   **   ~~~   ** Setpoint was never recovered and/or heater never turned on
   ** Warning ** Check input. Pump nominal power or motor efficiency is set to 0, for pump=MAINS PRESSURE
   ** Warning ** Output:Meter: invalid Key Name="ELECTRIC_RANGE:INTERIOREQUIPMENT:ELECTRICITY" - not found.
   ** Warning ** Output:Meter: invalid Key Name="ELECTRIC_DRYER:INTERIOREQUIPMENT:ELECTRICITY" - not found.
   ** Warning ** Output:Meter: invalid Key Name="HEATRECOVERY:ELECTRICITY" - not found.
   ** Warning ** Output:Meter: invalid Key Name="HEATING:NATURALGAS" - not found.
   ** Warning ** Output:Meter: invalid Key Name="WATERSYSTEMS:NATURALGAS" - not found.
   ** Warning ** Output:Meter: invalid Key Name="PROPANE:FACILITY" - not found.
   ** Warning ** Output:Meter: invalid Key Name="HEATING:PROPANE" - not found.
   ************* Testing Individual Branch Integrity
   ************* All Branches passed integrity testing
   ************* Testing Individual Supply Air Path Integrity
   ************* All Supply Air Paths passed integrity testing
   ************* Testing Individual Return Air Path Integrity
   ************* All Return Air Paths passed integrity testing
   ************* No node connection errors were found.
   ************* Beginning Simulation
   ** Warning ** AirflowNetwork::Solver::validate_distribution: Heat pump water heater is simulated along with an AirflowNetwork but is not included in the AirflowNetwork.
   ** Warning ** CalcEquipmentFlowRates: "TOTAL HOT WATER LOAD" - Target water temperature is greater than the hot water temperature by (1.19 C)
   **   ~~~   **  Environment=EXTREME_WINTER, at Simulation time=01/15 06:45 - 07:00
   **   ~~~   ** ...target water temperature     = 53.33 C
   **   ~~~   ** ...hot water temperature        = 52.15 C
   **   ~~~   ** ...Target water temperature should be less than or equal to the hot water temperature. Verify temperature setpoints and schedules.
   ** Warning ** SimHVAC: Maximum iterations (20) exceeded for all HVAC loops, at ANNUAL, 01/03 16:00 - 16:05
   **   ~~~   ** The solution for one or more of the Air Loop HVAC systems did not appear to converge
   **   ~~~   ** Air System Named = CENTRAL SYSTEM did not converge for mass flow rate
   **   ~~~   ** Check values should be zero. Most Recent values listed first.
   **   ~~~   ** Demand-to-Supply interface mass flow rate check value iteration history trace: 6.192069E-002,6.192069E-002,6.192069E-002,6.192069E-002,6.192069E-002,6.192069E-002,6.192069E-002,6.192069E-002,6.192069E-002,6.192069E-002,
   **   ~~~   ** Supply-to-demand interface deck 1 mass flow rate check value iteration history trace: 6.192069E-002,6.192069E-002,6.192069E-002,6.192069E-002,6.192069E-002,6.192069E-002,6.192069E-002,6.192069E-002,6.192069E-002,6.192069E-002,
   **   ~~~   ** Air System Named = CENTRAL SYSTEM did not converge for energy
   **   ~~~   ** Check values should be zero. Most Recent values listed first.
   **   ~~~   ** Demand-to-Supply interface energy check value iteration history trace: 1222.348844,1222.348844,1222.348844,1222.348844,1222.348843,1222.348843,1222.348843,1222.348842,1222.348842,1222.348842,
   **   ~~~   ** Supply-to-demand interface deck 1 energy check value iteration history trace: 1846.662481,1846.662480,1846.662480,1846.662480,1846.662479,1846.662479,1846.662478,1846.662478,1846.662477,1846.662477,
   ** Warning ** SimHVAC: Maximum iterations (20) exceeded for all HVAC loops, at ANNUAL, 01/05 11:45 - 12:00
   **   ~~~   ** The solution for one or more of the Air Loop HVAC systems did not appear to converge
   **   ~~~   ** Air System Named = CENTRAL SYSTEM did not converge for mass flow rate
   **   ~~~   ** Check values should be zero. Most Recent values listed first.
   **   ~~~   ** Demand-to-Supply interface mass flow rate check value iteration history trace: 6.443716E-002,6.443716E-002,6.443716E-002,6.443716E-002,6.443716E-002,6.443716E-002,6.443716E-002,6.443716E-002,6.443716E-002,6.443716E-002,
   **   ~~~   ** Supply-to-demand interface deck 1 mass flow rate check value iteration history trace: 6.443716E-002,6.443716E-002,6.443716E-002,6.443716E-002,6.443716E-002,6.443716E-002,6.443716E-002,6.443716E-002,6.443716E-002,6.443716E-002,
   **   ~~~   ** Air System Named = CENTRAL SYSTEM did not converge for energy
   **   ~~~   ** Check values should be zero. Most Recent values listed first.
   **   ~~~   ** Demand-to-Supply interface energy check value iteration history trace: 1276.892988,1276.892988,1276.892988,1276.892988,1276.892988,1276.892988,1276.892988,1276.892988,1276.892988,1276.892988,
   **   ~~~   ** Supply-to-demand interface deck 1 energy check value iteration history trace: 2201.173221,2201.173221,2201.173221,2201.173221,2201.173221,2201.173221,2201.173221,2201.173221,2201.173221,2201.173221,
   ** Warning ** SimHVAC: Maximum iterations (20) exceeded for all HVAC loops, at ANNUAL, 01/11 08:00 - 08:15
   **   ~~~   ** The solution for one or more of the Air Loop HVAC systems did not appear to converge
   **   ~~~   ** Air System Named = CENTRAL SYSTEM did not converge for mass flow rate
   **   ~~~   ** Check values should be zero. Most Recent values listed first.
   **   ~~~   ** Demand-to-Supply interface mass flow rate check value iteration history trace: 3.659374E-002,3.659374E-002,3.659374E-002,3.659374E-002,3.659374E-002,3.659374E-002,3.659374E-002,3.659374E-002,3.659374E-002,3.659374E-002,
   **   ~~~   ** Supply-to-demand interface deck 1 mass flow rate check value iteration history trace: 3.659374E-002,3.659374E-002,3.659374E-002,3.659374E-002,3.659374E-002,3.659374E-002,3.659374E-002,3.659374E-002,3.659374E-002,3.659374E-002,
   **   ~~~   ** Air System Named = CENTRAL SYSTEM did not converge for energy
   **   ~~~   ** Check values should be zero. Most Recent values listed first.
   **   ~~~   ** Demand-to-Supply interface energy check value iteration history trace: 725.040857,725.040857,725.040857,725.040857,725.040857,725.040857,725.040857,725.040857,725.040857,725.040857,
   **   ~~~   ** Supply-to-demand interface deck 1 energy check value iteration history trace: 1367.980617,1367.980617,1367.980617,1367.980617,1367.980617,1367.980617,1367.980617,1367.980617,1367.980616,1367.980616,
   ** Warning ** SimHVAC: Maximum iterations (20) exceeded for all HVAC loops, at ANNUAL, 01/20 13:45 - 14:00
   **   ~~~   ** The solution for one or more of the Air Loop HVAC systems did not appear to converge
   **   ~~~   ** Air System Named = CENTRAL SYSTEM did not converge for mass flow rate
   **   ~~~   ** Check values should be zero. Most Recent values listed first.
   **   ~~~   ** Demand-to-Supply interface mass flow rate check value iteration history trace: 3.838031E-002,3.838031E-002,3.838031E-002,3.838031E-002,3.838031E-002,3.838031E-002,3.838031E-002,3.838031E-002,3.838031E-002,3.838031E-002,
   **   ~~~   ** Supply-to-demand interface deck 1 mass flow rate check value iteration history trace: 3.838031E-002,3.838031E-002,3.838031E-002,3.838031E-002,3.838031E-002,3.838031E-002,3.838031E-002,3.838031E-002,3.838031E-002,3.838031E-002,
   **   ~~~   ** Air System Named = CENTRAL SYSTEM did not converge for energy
   **   ~~~   ** Check values should be zero. Most Recent values listed first.
   **   ~~~   ** Demand-to-Supply interface energy check value iteration history trace: 758.755839,758.755838,758.755838,758.755838,758.755838,758.755838,758.755837,758.755837,758.755837,758.755837,
   **   ~~~   ** Supply-to-demand interface deck 1 energy check value iteration history trace: 1134.140722,1134.140722,1134.140722,1134.140722,1134.140721,1134.140721,1134.140721,1134.140720,1134.140720,1134.140720,
   ** Warning ** SimHVAC: Maximum iterations (20) exceeded for all HVAC loops, at ANNUAL, 02/09 10:30 - 10:34
   **   ~~~   ** The solution for one or more of the Air Loop HVAC systems did not appear to converge
   **   ~~~   ** Air System Named = CENTRAL SYSTEM did not converge for mass flow rate
   **   ~~~   ** Check values should be zero. Most Recent values listed first.
   **   ~~~   ** Demand-to-Supply interface mass flow rate check value iteration history trace: 9.522758E-002,9.522758E-002,9.522758E-002,9.522758E-002,9.522758E-002,9.522758E-002,9.522758E-002,9.522758E-002,9.522758E-002,9.522758E-002,
   **   ~~~   ** Supply-to-demand interface deck 1 mass flow rate check value iteration history trace: 9.522758E-002,9.522758E-002,9.522758E-002,9.522758E-002,9.522758E-002,9.522758E-002,9.522758E-002,9.522758E-002,9.522758E-002,9.522758E-002,
   **   ~~~   ** Air System Named = CENTRAL SYSTEM did not converge for energy
   **   ~~~   ** Check values should be zero. Most Recent values listed first.
   **   ~~~   ** Demand-to-Supply interface energy check value iteration history trace: 1886.954305,1886.954305,1886.954305,1886.954305,1886.954305,1886.954305,1886.954305,1886.954304,1886.954304,1886.954304,
   **   ~~~   ** Supply-to-demand interface deck 1 energy check value iteration history trace: 2951.625870,2951.625870,2951.625870,2951.625869,2951.625869,2951.625869,2951.625869,2951.625869,2951.625868,2951.625868,
   ** Warning ** SimHVAC: Maximum iterations (20) exceeded for all HVAC loops, at ANNUAL, 02/13 17:15 - 17:30
   **   ~~~   ** The solution for one or more of the Air Loop HVAC systems did not appear to converge
   **   ~~~   ** Air System Named = CENTRAL SYSTEM did not converge for mass flow rate
   **   ~~~   ** Check values should be zero. Most Recent values listed first.
   **   ~~~   ** Demand-to-Supply interface mass flow rate check value iteration history trace: 5.821811E-002,5.821811E-002,5.821811E-002,5.821811E-002,5.821811E-002,5.821811E-002,5.821811E-002,5.821811E-002,5.821811E-002,5.821811E-002,
   **   ~~~   ** Supply-to-demand interface deck 1 mass flow rate check value iteration history trace: 5.821811E-002,5.821811E-002,5.821811E-002,5.821811E-002,5.821811E-002,5.821811E-002,5.821811E-002,5.821811E-002,5.821811E-002,5.821811E-002,
   **   ~~~   ** Air System Named = CENTRAL SYSTEM did not converge for energy
   **   ~~~   ** Check values should be zero. Most Recent values listed first.
   **   ~~~   ** Demand-to-Supply interface energy check value iteration history trace: 1153.126449,1153.126449,1153.126449,1153.126449,1153.126449,1153.126449,1153.126449,1153.126449,1153.126449,1153.126449,
   **   ~~~   ** Supply-to-demand interface deck 1 energy check value iteration history trace: 1961.752546,1961.752546,1961.752546,1961.752546,1961.752546,1961.752546,1961.752546,1961.752546,1961.752545,1961.752545,
   ** Warning ** SimHVAC: Maximum iterations (20) exceeded for all HVAC loops, at ANNUAL, 02/20 09:00 - 09:15
   **   ~~~   ** The solution for one or more of the Air Loop HVAC systems did not appear to converge
   **   ~~~   ** Air System Named = CENTRAL SYSTEM did not converge for mass flow rate
   **   ~~~   ** Check values should be zero. Most Recent values listed first.
   **   ~~~   ** Demand-to-Supply interface mass flow rate check value iteration history trace: 7.381777E-002,7.381777E-002,7.381777E-002,7.381777E-002,7.381777E-002,7.381777E-002,7.381777E-002,7.381777E-002,7.381777E-002,7.381777E-002,
   **   ~~~   ** Supply-to-demand interface deck 1 mass flow rate check value iteration history trace: 7.381777E-002,7.381777E-002,7.381777E-002,7.381777E-002,7.381777E-002,7.381777E-002,7.381777E-002,7.381777E-002,7.381777E-002,7.381777E-002,
   **   ~~~   ** Air System Named = CENTRAL SYSTEM did not converge for energy
   **   ~~~   ** Check values should be zero. Most Recent values listed first.
   **   ~~~   ** Demand-to-Supply interface energy check value iteration history trace: 1462.696335,1462.696335,1462.696335,1462.696335,1462.696335,1462.696335,1462.696335,1462.696334,1462.696334,1462.696334,
   **   ~~~   ** Supply-to-demand interface deck 1 energy check value iteration history trace: 2425.048986,2425.048986,2425.048985,2425.048985,2425.048985,2425.048985,2425.048985,2425.048985,2425.048985,2425.048984,
   ** Warning ** SimHVAC: Maximum iterations (20) exceeded for all HVAC loops, at ANNUAL, 02/25 19:55 - 20:00
   **   ~~~   ** The solution for one or more of the Air Loop HVAC systems did not appear to converge
   **   ~~~   ** Air System Named = CENTRAL SYSTEM did not converge for mass flow rate
   **   ~~~   ** Check values should be zero. Most Recent values listed first.
   **   ~~~   ** Demand-to-Supply interface mass flow rate check value iteration history trace: 8.550911E-002,8.550911E-002,8.550911E-002,8.550911E-002,8.550911E-002,8.550911E-002,8.550911E-002,8.550911E-002,8.550911E-002,8.550911E-002,
   **   ~~~   ** Supply-to-demand interface deck 1 mass flow rate check value iteration history trace: 8.550911E-002,8.550911E-002,8.550911E-002,8.550911E-002,8.550911E-002,8.550911E-002,8.550911E-002,8.550911E-002,8.550911E-002,8.550911E-002,
   **   ~~~   ** Air System Named = CENTRAL SYSTEM did not converge for energy
   **   ~~~   ** Check values should be zero. Most Recent values listed first.
   **   ~~~   ** Demand-to-Supply interface energy check value iteration history trace: 1686.451096,1686.451096,1686.451096,1686.451096,1686.451096,1686.451096,1686.451095,1686.451095,1686.451095,1686.451095,
   **   ~~~   ** Supply-to-demand interface deck 1 energy check value iteration history trace: 2587.732459,2587.732459,2587.732459,2587.732459,2587.732459,2587.732459,2587.732458,2587.732458,2587.732458,2587.732458,
   ** Warning ** SimHVAC: Maximum iterations (20) exceeded for all HVAC loops, at ANNUAL, 03/05 00:15 - 00:30
   **   ~~~   ** The solution for one or more of the Air Loop HVAC systems did not appear to converge
   **   ~~~   ** Air System Named = CENTRAL SYSTEM did not converge for mass flow rate
   **   ~~~   ** Check values should be zero. Most Recent values listed first.
   **   ~~~   ** Demand-to-Supply interface mass flow rate check value iteration history trace: 4.488070E-002,4.488070E-002,4.488070E-002,4.488070E-002,4.488070E-002,4.488070E-002,4.488070E-002,4.488070E-002,4.488070E-002,4.488070E-002,
   **   ~~~   ** Supply-to-demand interface deck 1 mass flow rate check value iteration history trace: 4.488070E-002,4.488070E-002,4.488070E-002,4.488070E-002,4.488070E-002,4.488070E-002,4.488070E-002,4.488070E-002,4.488070E-002,4.488070E-002,
   **   ~~~   ** Air System Named = CENTRAL SYSTEM did not converge for energy
   **   ~~~   ** Check values should be zero. Most Recent values listed first.
   **   ~~~   ** Demand-to-Supply interface energy check value iteration history trace: 836.206392,836.206392,836.206392,836.206392,836.206392,836.206392,836.206391,836.206391,836.206391,836.206391,
   **   ~~~   ** Supply-to-demand interface deck 1 energy check value iteration history trace: 1337.821814,1337.821814,1337.821814,1337.821814,1337.821814,1337.821814,1337.821814,1337.821814,1337.821814,1337.821814,
   ** Warning ** SimHVAC: Maximum iterations (20) exceeded for all HVAC loops, at ANNUAL, 04/12 10:00 - 10:15
   **   ~~~   ** The solution for one or more of the Air Loop HVAC systems did not appear to converge
   **   ~~~   ** Air System Named = CENTRAL SYSTEM did not converge for mass flow rate
   **   ~~~   ** Check values should be zero. Most Recent values listed first.
   **   ~~~   ** Demand-to-Supply interface mass flow rate check value iteration history trace: 0.101657,0.101657,0.101657,0.101657,0.101657,0.101657,0.101657,0.101657,0.101657,0.101657,
   **   ~~~   ** Supply-to-demand interface deck 1 mass flow rate check value iteration history trace: 0.101657,0.101657,0.101657,0.101657,0.101657,0.101657,0.101657,0.101657,0.101657,0.101657,
   **   ~~~   ** Air System Named = CENTRAL SYSTEM did not converge for energy
   **   ~~~   ** Check values should be zero. Most Recent values listed first.
   **   ~~~   ** Demand-to-Supply interface energy check value iteration history trace: 2393.402191,2393.402191,2393.402191,2393.402191,2393.402191,2393.402191,2393.402192,2393.402192,2393.402192,2393.402192,
   **   ~~~   ** Supply-to-demand interface deck 1 energy check value iteration history trace: 1451.856180,1451.856180,1451.856180,1451.856181,1451.856181,1451.856181,1451.856181,1451.856181,1451.856181,1451.856181,
   ** Warning ** SimHVAC: Maximum iterations (20) exceeded for all HVAC loops, at ANNUAL, 04/18 07:10 - 07:15
   **   ~~~   ** The solution for one or more of the Air Loop HVAC systems did not appear to converge
   **   ~~~   ** Air System Named = CENTRAL SYSTEM did not converge for mass flow rate
   **   ~~~   ** Check values should be zero. Most Recent values listed first.
   **   ~~~   ** Demand-to-Supply interface mass flow rate check value iteration history trace: 0.403543,0.403543,0.403543,0.403543,0.403543,0.403543,0.403543,0.403543,0.403543,0.403543,
   **   ~~~   ** Supply-to-demand interface deck 1 mass flow rate check value iteration history trace: 0.403543,0.403543,0.403543,0.403543,0.403543,0.403543,0.403543,0.403543,0.403543,0.403543,
   **   ~~~   ** Air System Named = CENTRAL SYSTEM did not converge for energy
   **   ~~~   ** Check values should be zero. Most Recent values listed first.
   **   ~~~   ** Demand-to-Supply interface energy check value iteration history trace: 9766.101302,9766.101302,9766.101303,9766.101304,9766.101304,9766.101305,9766.101305,9766.101306,9766.101307,9766.101307,
   **   ~~~   ** Supply-to-demand interface deck 1 energy check value iteration history trace: 5225.368224,5225.368224,5225.368224,5225.368225,5225.368225,5225.368225,5225.368225,5225.368226,5225.368226,5225.368226,
   ** Warning ** SimHVAC: Maximum iterations (20) exceeded for all HVAC loops, at ANNUAL, 04/21 13:45 - 14:00
   **   ~~~   ** The solution for one or more of the Air Loop HVAC systems did not appear to converge
   **   ~~~   ** Air System Named = CENTRAL SYSTEM did not converge for mass flow rate
   **   ~~~   ** Check values should be zero. Most Recent values listed first.
   **   ~~~   ** Demand-to-Supply interface mass flow rate check value iteration history trace: 2.774755E-002,2.774755E-002,2.774755E-002,2.774755E-002,2.774755E-002,2.774755E-002,2.774755E-002,2.774755E-002,2.774755E-002,2.774755E-002,
   **   ~~~   ** Supply-to-demand interface deck 1 mass flow rate check value iteration history trace: 2.774755E-002,2.774755E-002,2.774755E-002,2.774755E-002,2.774755E-002,2.774755E-002,2.774755E-002,2.774755E-002,2.774755E-002,2.774755E-002,
   **   ~~~   ** Air System Named = CENTRAL SYSTEM did not converge for energy
   **   ~~~   ** Check values should be zero. Most Recent values listed first.
   **   ~~~   ** Demand-to-Supply interface energy check value iteration history trace: 641.957547,641.957547,641.957547,641.957547,641.957547,641.957547,641.957547,641.957547,641.957547,641.957547,
   **   ~~~   ** Supply-to-demand interface deck 1 energy check value iteration history trace: 245.137204,245.137204,245.137204,245.137204,245.137204,245.137204,245.137204,245.137204,245.137204,245.137204,
   ** Warning ** SimHVAC: Maximum iterations (20) exceeded for all HVAC loops, at ANNUAL, 04/24 07:45 - 08:00
   **   ~~~   ** The solution for one or more of the Air Loop HVAC systems did not appear to converge
   **   ~~~   ** Air System Named = CENTRAL SYSTEM did not converge for mass flow rate
   **   ~~~   ** Check values should be zero. Most Recent values listed first.
   **   ~~~   ** Demand-to-Supply interface mass flow rate check value iteration history trace: 6.596770E-002,6.596770E-002,6.596770E-002,6.596770E-002,6.596770E-002,6.596770E-002,6.596770E-002,6.596770E-002,6.596770E-002,6.596770E-002,
   **   ~~~   ** Supply-to-demand interface deck 1 mass flow rate check value iteration history trace: 6.596770E-002,6.596770E-002,6.596770E-002,6.596770E-002,6.596770E-002,6.596770E-002,6.596770E-002,6.596770E-002,6.596770E-002,6.596770E-002,
   **   ~~~   ** Air System Named = CENTRAL SYSTEM did not converge for energy
   **   ~~~   ** Check values should be zero. Most Recent values listed first.
   **   ~~~   ** Demand-to-Supply interface energy check value iteration history trace: 1307.191880,1307.191880,1307.191880,1307.191880,1307.191880,1307.191880,1307.191880,1307.191880,1307.191879,1307.191879,
   **   ~~~   ** Supply-to-demand interface deck 1 energy check value iteration history trace: 2256.568377,2256.568377,2256.568377,2256.568376,2256.568376,2256.568376,2256.568376,2256.568376,2256.568376,2256.568376,
   ** Warning ** SimHVAC: Maximum iterations (20) exceeded for all HVAC loops, at ANNUAL, 11/12 00:00 - 00:15
   **   ~~~   ** The solution for one or more of the Air Loop HVAC systems did not appear to converge
   **   ~~~   ** Air System Named = CENTRAL SYSTEM did not converge for mass flow rate
   **   ~~~   ** Check values should be zero. Most Recent values listed first.
   **   ~~~   ** Demand-to-Supply interface mass flow rate check value iteration history trace: 7.917020E-002,7.917020E-002,7.917020E-002,7.917020E-002,7.917020E-002,7.917020E-002,7.917020E-002,7.917020E-002,7.917020E-002,7.917020E-002,
   **   ~~~   ** Supply-to-demand interface deck 1 mass flow rate check value iteration history trace: 7.917020E-002,7.917020E-002,7.917020E-002,7.917020E-002,7.917020E-002,7.917020E-002,7.917020E-002,7.917020E-002,7.917020E-002,7.917020E-002,
   **   ~~~   ** Air System Named = CENTRAL SYSTEM did not converge for energy
   **   ~~~   ** Check values should be zero. Most Recent values listed first.
   **   ~~~   ** Demand-to-Supply interface energy check value iteration history trace: 1479.539240,1479.539240,1479.539240,1479.539240,1479.539240,1479.539240,1479.539240,1479.539239,1479.539239,1479.539239,
   **   ~~~   ** Supply-to-demand interface deck 1 energy check value iteration history trace: 2254.294110,2254.294110,2254.294110,2254.294110,2254.294110,2254.294110,2254.294109,2254.294109,2254.294109,2254.294109,
   ************* Simulation Error Summary *************
   ** Warning ** The following Report Variables were requested but not generated -- check.rdd file
   **   ~~~   ** Either the IDF did not contain these elements, the variable name is misspelled,
   **   ~~~   ** or the requested variable is an advanced output which requires Output : Diagnostics, DisplayAdvancedReportVariables;
   ************* Key=*, VarName=BASEBOARD TOTAL HEATING ENERGY, Frequency=
   ************* Key=*, VarName=WATER HEATER NATURALGAS ENERGY, Frequency=
   ************* Key=*, VarName=COOLING COIL TOTAL HEATING ENERGY, Frequency=
   ************* There are 34 unused schedules in input.
   ************* There are 388 unused week schedules in input.
   ************* There are 397 unused day schedules in input.
   ************* Use Output:Diagnostics,DisplayUnusedSchedules; to see them.
   *************
   ************* ===== Recurring Error Summary =====
   ************* The following recurring error messages occurred.
   *************
   *************  ** Warning ** "TOTAL HOT WATER LOAD" - Target water temperature should be less than or equal to the hot water temperature error continues...
   *************  **   ~~~   **   This error occurred 97977 total times;
   *************  **   ~~~   **   during Warmup 0 times;
   *************  **   ~~~   **   during Sizing 0 times.
   *************  **   ~~~   **   Max=9.442971  Min=9.030764E-004
   *************
   *************  ** Warning ** SimHVAC: Exceeding Maximum iterations for all HVAC loops, during ANNUAL continues
   *************  **   ~~~   **   This error occurred 4 total times;
   *************  **   ~~~   **   during Warmup 0 times;
   *************  **   ~~~   **   during Sizing 0 times.
   *************
   *************
   ************* ===== Final Error Summary =====
   ************* The following error categories occurred.  Consider correcting or noting.
   ************* Nominally Unused Constructions
   ************* ..The nominally unused constructions warning is provided to alert you to potential conditions that can cause
   ************* ..extra time during simulation. Each construction is calculated by the algorithm indicated in the HeatBalanceAlgorithm
   ************* ..object. You may remove the constructions indicated (when you use the DisplayExtraWarnings option).
   *************
   ************* EnergyPlus Warmup Error Summary. During Warmup: 1 Warning; 0 Severe Errors.
   ************* EnergyPlus Sizing Error Summary. During Sizing: 4 Warning; 0 Severe Errors.
   ************* EnergyPlus Completed Successfully-- 98012 Warning; 0 Severe Errors; Elapsed Time=00hr 01min 30.80sec
