Program Version,EnergyPlus, Version 22.2.0-c249759bad, YMD=2023.09.01 19:47,
   ************* Beginning Zone Sizing Calculations
   ** Warning ** ProcessScheduleInput: Schedule:Constant="ALWAYS ON DISCRETE", Schedule Type Limits Name="ONOFF" not found -- will not be validated
   ** Warning ** Foundation:Kiva="KIVA FOUNDATION", no Interior Horizontal Insulation Material Name defined
   **   ~~~   ** Interior Horizontal Insulation Depth will not be used.
   ** Warning ** CheckUsedConstructions: There are 15 nominally unused constructions in input.
   **   ~~~   ** Each Unused construction is shown.
   ************* Construction=INTERIOR FLOOR
   ************* Construction=INTERIOR WINDOW
   ************* Construction=EXTERIOR DOOR
   ************* Construction=INTERIOR DOOR
   ************* Construction=GABLE CONSTRUCTION
   ************* Construction=CRAWL_FLOOR
   ************* Construction=INSULATED PIPE
   ************* Construction=PLAIN PIPE
   ************* Construction=TDD PIPE
   ************* Construction=TDD DOME
   ************* Construction=TDD DIFFUSER
   ************* Construction=CRAWL WALL
   ************* Construction=CEILING-FLOOR-LAYER
   ************* Construction=SLAB CONSTRUCTION W FULL R10 INSULATION
   ************* Construction=SLAB CONSTRUCTION W FULL R5 INSULATION
   ** Warning ** GetDXCoils: Coil:Heating:DX:SingleSpeed="DX_HEATING_COIL" curve values
   **   ~~~   ** ... Defrost Energy Input Ratio Function of Temperature Curve Name = DEFROSTEIR output is not equal to 1.0 (+ or - 10%) at rated conditions.
   **   ~~~   ** ... Curve output at rated conditions = 0.152
   ************* Beginning System Sizing Calculations
   ************* Beginning Plant Sizing Calculations
   ** Warning ** SizeDXCoil Coil:Cooling:DX:SingleSpeed DX_COOLING_COIL
   **   ~~~   ** ...Gross Rated Total Cooling Capacity [W] will be limited by the maximum rated volume flow per rated total capacity ratio.
   **   ~~~   ** ...DX coil volume flow rate ( m3/s ) = 0.451207
   **   ~~~   ** ...Requested capacity ( W ) = 7101.760
   **   ~~~   ** ...Requested flow/capacity ratio ( m3/s/W ) = 6.353E-005
   **   ~~~   ** ...Maximum flow/capacity ratio ( m3/s/W ) = 6.041E-005
   **   ~~~   ** ...Adjusted capacity ( W ) = 7469.085
   ** Warning ** Coil:WaterHeating:AirToWaterHeatPump:Wrapped "HEAT PUMP WATER HEATER EVAPORATOR": Rated air volume flow rate per watt of rated total water heating capacity is out of range
   **   ~~~   ** Min Rated Vol Flow Per Watt=[4.027E-005], Rated Vol Flow Per Watt=[1.510E-004], Max Rated Vol Flow Per Watt=[8.056E-005]. See Input-Output Reference Manual for valid range.
   ************* SizeFan: : Potential issue with equipment sizing for Fan:OnOff HEAT PUMP WATER HEATER FAN
   **   ~~~   ** User-Specified Maximum Flow Rate [m3/s] = 0.22653
   **   ~~~   ** differs from Design Size Maximum Flow Rate [m3/s] = 7.55250E-002
   **   ~~~   ** This may, or may not, indicate mismatched component sizes.
   **   ~~~   ** Verify that the value entered is intended and is consistent with other components.
   ** Warning ** Water heater = WATER HEATER TANK:  Recovery Efficiency and Energy Factor could not be calculated during the test for standard ratings
   **   ~~~   ** Setpoint was never recovered and/or heater never turned on
   ** Warning ** Check input. Pump nominal power or motor efficiency is set to 0, for pump=MAINS PRESSURE
   ** Warning ** Output:Meter: invalid Key Name="ELECTRIC_RANGE:INTERIOREQUIPMENT:ELECTRICITY" - not found.
   ** Warning ** Output:Meter: invalid Key Name="ELECTRIC_DRYER:INTERIOREQUIPMENT:ELECTRICITY" - not found.
   ** Warning ** Output:Meter: invalid Key Name="HEATRECOVERY:ELECTRICITY" - not found.
   ** Warning ** Output:Meter: invalid Key Name="HEATING:NATURALGAS" - not found.
   ** Warning ** Output:Meter: invalid Key Name="WATERSYSTEMS:NATURALGAS" - not found.
   ** Warning ** Output:Meter: invalid Key Name="PROPANE:FACILITY" - not found.
   ** Warning ** Output:Meter: invalid Key Name="HEATING:PROPANE" - not found.
   ************* Testing Individual Branch Integrity
   ************* All Branches passed integrity testing
   ************* Testing Individual Supply Air Path Integrity
   ************* All Supply Air Paths passed integrity testing
   ************* Testing Individual Return Air Path Integrity
   ************* All Return Air Paths passed integrity testing
   ************* No node connection errors were found.
   ************* Beginning Simulation
   ** Warning ** AirflowNetwork::Solver::validate_distribution: Heat pump water heater is simulated along with an AirflowNetwork but is not included in the AirflowNetwork.
   ** Warning ** CalcEquipmentFlowRates: "TOTAL HOT WATER LOAD" - Target water temperature is greater than the hot water temperature by (5.90 C)
   **   ~~~   **  Environment=EXTREME_WINTER, at Simulation time=02/05 06:00 - 06:15
   **   ~~~   ** ...target water temperature     = 53.33 C
   **   ~~~   ** ...hot water temperature        = 47.43 C
   **   ~~~   ** ...Target water temperature should be less than or equal to the hot water temperature. Verify temperature setpoints and schedules.
   ** Warning ** SimHVAC: Maximum iterations (20) exceeded for all HVAC loops, at ANNUAL, 02/15 18:00 - 18:15
   **   ~~~   ** The solution for one or more of the Air Loop HVAC systems did not appear to converge
   **   ~~~   ** Air System Named = CENTRAL SYSTEM did not converge for mass flow rate
   **   ~~~   ** Check values should be zero. Most Recent values listed first.
   **   ~~~   ** Demand-to-Supply interface mass flow rate check value iteration history trace: 9.872912E-002,9.872912E-002,9.872912E-002,9.872912E-002,9.872912E-002,9.872912E-002,9.872912E-002,9.872912E-002,9.872912E-002,9.872912E-002,
   **   ~~~   ** Supply-to-demand interface deck 1 mass flow rate check value iteration history trace: 9.872912E-002,9.872912E-002,9.872912E-002,9.872912E-002,9.872912E-002,9.872912E-002,9.872912E-002,9.872912E-002,9.872912E-002,9.872912E-002,
   **   ~~~   ** Air System Named = CENTRAL SYSTEM did not converge for energy
   **   ~~~   ** Check values should be zero. Most Recent values listed first.
   **   ~~~   ** Demand-to-Supply interface energy check value iteration history trace: 1954.805199,1954.805199,1954.805199,1954.805199,1954.805199,1954.805199,1954.805198,1954.805198,1954.805198,1954.805198,
   **   ~~~   ** Supply-to-demand interface deck 1 energy check value iteration history trace: 2990.374080,2990.374080,2990.374080,2990.374079,2990.374079,2990.374079,2990.374079,2990.374079,2990.374078,2990.374078,
   ** Warning ** SimHVAC: Maximum iterations (20) exceeded for all HVAC loops, at ANNUAL, 03/08 16:30 - 16:38
   **   ~~~   ** The solution for one or more of the Air Loop HVAC systems did not appear to converge
   **   ~~~   ** Air System Named = CENTRAL SYSTEM did not converge for mass flow rate
   **   ~~~   ** Check values should be zero. Most Recent values listed first.
   **   ~~~   ** Demand-to-Supply interface mass flow rate check value iteration history trace: 0.100624,0.100624,0.100624,0.100624,0.100624,0.100624,0.100624,0.100624,0.100624,0.100624,
   **   ~~~   ** Supply-to-demand interface deck 1 mass flow rate check value iteration history trace: 0.100624,0.100624,0.100624,0.100624,0.100624,0.100624,0.100624,0.100624,0.100624,0.100624,
   **   ~~~   ** Air System Named = CENTRAL SYSTEM did not converge for energy
   **   ~~~   ** Check values should be zero. Most Recent values listed first.
   **   ~~~   ** Demand-to-Supply interface energy check value iteration history trace: 1993.874648,1993.874647,1993.874647,1993.874647,1993.874647,1993.874647,1993.874647,1993.874647,1993.874646,1993.874646,
   **   ~~~   ** Supply-to-demand interface deck 1 energy check value iteration history trace: 3088.393242,3088.393242,3088.393242,3088.393242,3088.393241,3088.393241,3088.393241,3088.393241,3088.393241,3088.393240,
   ** Warning ** SimHVAC: Maximum iterations (20) exceeded for all HVAC loops, at ANNUAL, 03/22 09:00 - 09:15
   **   ~~~   ** The solution for one or more of the Air Loop HVAC systems did not appear to converge
   **   ~~~   ** Air System Named = CENTRAL SYSTEM did not converge for mass flow rate
   **   ~~~   ** Check values should be zero. Most Recent values listed first.
   **   ~~~   ** Demand-to-Supply interface mass flow rate check value iteration history trace: 6.604630E-002,6.604630E-002,6.604630E-002,6.604630E-002,6.604630E-002,6.604630E-002,6.604630E-002,6.604630E-002,6.604630E-002,6.604630E-002,
   **   ~~~   ** Supply-to-demand interface deck 1 mass flow rate check value iteration history trace: 6.604630E-002,6.604630E-002,6.604630E-002,6.604630E-002,6.604630E-002,6.604630E-002,6.604630E-002,6.604630E-002,6.604630E-002,6.604630E-002,
   **   ~~~   ** Air System Named = CENTRAL SYSTEM did not converge for energy
   **   ~~~   ** Check values should be zero. Most Recent values listed first.
   **   ~~~   ** Demand-to-Supply interface energy check value iteration history trace: 1308.784301,1308.784300,1308.784300,1308.784300,1308.784300,1308.784300,1308.784300,1308.784300,1308.784300,1308.784300,
   **   ~~~   ** Supply-to-demand interface deck 1 energy check value iteration history trace: 2283.645797,2283.645797,2283.645797,2283.645797,2283.645797,2283.645796,2283.645796,2283.645796,2283.645796,2283.645796,
   ** Warning ** SimHVAC: Maximum iterations (20) exceeded for all HVAC loops, at ANNUAL, 04/02 00:15 - 00:30
   **   ~~~   ** The solution for one or more of the Air Loop HVAC systems did not appear to converge
   **   ~~~   ** Air System Named = CENTRAL SYSTEM did not converge for mass flow rate
   **   ~~~   ** Check values should be zero. Most Recent values listed first.
   **   ~~~   ** Demand-to-Supply interface mass flow rate check value iteration history trace: 4.957643E-002,4.957643E-002,4.957643E-002,4.957643E-002,4.957643E-002,4.957643E-002,4.957643E-002,4.957643E-002,4.957643E-002,4.957643E-002,
   **   ~~~   ** Supply-to-demand interface deck 1 mass flow rate check value iteration history trace: 4.957643E-002,4.957643E-002,4.957643E-002,4.957643E-002,4.957643E-002,4.957643E-002,4.957643E-002,4.957643E-002,4.957643E-002,4.957643E-002,
   **   ~~~   ** Air System Named = CENTRAL SYSTEM did not converge for energy
   **   ~~~   ** Check values should be zero. Most Recent values listed first.
   **   ~~~   ** Demand-to-Supply interface energy check value iteration history trace: 923.022129,923.022129,923.022129,923.022129,923.022129,923.022129,923.022129,923.022129,923.022129,923.022129,
   **   ~~~   ** Supply-to-demand interface deck 1 energy check value iteration history trace: 1656.503911,1656.503911,1656.503911,1656.503911,1656.503911,1656.503911,1656.503911,1656.503911,1656.503911,1656.503911,
   ** Warning ** SimHVAC: Maximum iterations (20) exceeded for all HVAC loops, at ANNUAL, 04/03 07:45 - 08:00
   **   ~~~   ** The solution for one or more of the Air Loop HVAC systems did not appear to converge
   **   ~~~   ** Air System Named = CENTRAL SYSTEM did not converge for mass flow rate
   **   ~~~   ** Check values should be zero. Most Recent values listed first.
   **   ~~~   ** Demand-to-Supply interface mass flow rate check value iteration history trace: 7.405556E-002,7.405556E-002,7.405556E-002,7.405556E-002,7.405556E-002,7.405556E-002,7.405556E-002,7.405556E-002,7.405556E-002,7.405556E-002,
   **   ~~~   ** Supply-to-demand interface deck 1 mass flow rate check value iteration history trace: 7.405556E-002,7.405556E-002,7.405556E-002,7.405556E-002,7.405556E-002,7.405556E-002,7.405556E-002,7.405556E-002,7.405556E-002,7.405556E-002,
   **   ~~~   ** Air System Named = CENTRAL SYSTEM did not converge for energy
   **   ~~~   ** Check values should be zero. Most Recent values listed first.
   **   ~~~   ** Demand-to-Supply interface energy check value iteration history trace: 1469.434405,1469.434405,1469.434405,1469.434405,1469.434405,1469.434405,1469.434405,1469.434405,1469.434405,1469.434405,
   **   ~~~   ** Supply-to-demand interface deck 1 energy check value iteration history trace: 2606.898731,2606.898731,2606.898731,2606.898731,2606.898731,2606.898731,2606.898731,2606.898730,2606.898730,2606.898730,
   ** Warning ** SimHVAC: Maximum iterations (20) exceeded for all HVAC loops, at ANNUAL, 04/03 08:30 - 08:35
   **   ~~~   ** The solution for one or more of the Air Loop HVAC systems did not appear to converge
   **   ~~~   ** Air System Named = CENTRAL SYSTEM did not converge for mass flow rate
   **   ~~~   ** Check values should be zero. Most Recent values listed first.
   **   ~~~   ** Demand-to-Supply interface mass flow rate check value iteration history trace: 6.945120E-002,6.945120E-002,6.945120E-002,6.945120E-002,6.945120E-002,6.945120E-002,6.945120E-002,6.945120E-002,6.945120E-002,6.945120E-002,
   **   ~~~   ** Supply-to-demand interface deck 1 mass flow rate check value iteration history trace: 6.945120E-002,6.945120E-002,6.945120E-002,6.945120E-002,6.945120E-002,6.945120E-002,6.945120E-002,6.945120E-002,6.945120E-002,6.945120E-002,
   **   ~~~   ** Air System Named = CENTRAL SYSTEM did not converge for energy
   **   ~~~   ** Check values should be zero. Most Recent values listed first.
   **   ~~~   ** Demand-to-Supply interface energy check value iteration history trace: 1363.776619,1363.776619,1363.776619,1363.776619,1363.776619,1363.776619,1363.776619,1363.776619,1363.776619,1363.776618,
   **   ~~~   ** Supply-to-demand interface deck 1 energy check value iteration history trace: 2465.754012,2465.754011,2465.754011,2465.754011,2465.754011,2465.754011,2465.754011,2465.754011,2465.754011,2465.754011,
   ** Warning ** SimHVAC: Maximum iterations (20) exceeded for all HVAC loops, at ANNUAL, 04/07 08:15 - 08:30
   **   ~~~   ** The solution for one or more of the Air Loop HVAC systems did not appear to converge
   **   ~~~   ** Air System Named = CENTRAL SYSTEM did not converge for mass flow rate
   **   ~~~   ** Check values should be zero. Most Recent values listed first.
   **   ~~~   ** Demand-to-Supply interface mass flow rate check value iteration history trace: 8.088187E-002,8.088187E-002,8.088187E-002,8.088187E-002,8.088187E-002,8.088187E-002,8.088187E-002,8.088187E-002,8.088187E-002,8.088187E-002,
   **   ~~~   ** Supply-to-demand interface deck 1 mass flow rate check value iteration history trace: 8.088187E-002,8.088187E-002,8.088187E-002,8.088187E-002,8.088187E-002,8.088187E-002,8.088187E-002,8.088187E-002,8.088187E-002,8.088187E-002,
   **   ~~~   ** Air System Named = CENTRAL SYSTEM did not converge for energy
   **   ~~~   ** Check values should be zero. Most Recent values listed first.
   **   ~~~   ** Demand-to-Supply interface energy check value iteration history trace: 1602.750163,1602.750163,1602.750163,1602.750163,1602.750163,1602.750162,1602.750162,1602.750162,1602.750162,1602.750162,
   **   ~~~   ** Supply-to-demand interface deck 1 energy check value iteration history trace: 2731.076165,2731.076165,2731.076165,2731.076165,2731.076165,2731.076165,2731.076164,2731.076164,2731.076164,2731.076164,
   ** Warning ** SimHVAC: Maximum iterations (20) exceeded for all HVAC loops, at ANNUAL, 04/07 08:15 - 08:20
   **   ~~~   ** The solution for one or more of the Air Loop HVAC systems did not appear to converge
   **   ~~~   ** Air System Named = CENTRAL SYSTEM did not converge for mass flow rate
   **   ~~~   ** Check values should be zero. Most Recent values listed first.
   **   ~~~   ** Demand-to-Supply interface mass flow rate check value iteration history trace: 8.099998E-002,8.099998E-002,8.099998E-002,8.099998E-002,8.099998E-002,8.099998E-002,8.099998E-002,8.099998E-002,8.099998E-002,8.099998E-002,
   **   ~~~   ** Supply-to-demand interface deck 1 mass flow rate check value iteration history trace: 8.099998E-002,8.099998E-002,8.099998E-002,8.099998E-002,8.099998E-002,8.099998E-002,8.099998E-002,8.099998E-002,8.099998E-002,8.099998E-002,
   **   ~~~   ** Air System Named = CENTRAL SYSTEM did not converge for energy
   **   ~~~   ** Check values should be zero. Most Recent values listed first.
   **   ~~~   ** Demand-to-Supply interface energy check value iteration history trace: 1605.091665,1605.091664,1605.091664,1605.091664,1605.091664,1605.091664,1605.091664,1605.091664,1605.091664,1605.091664,
   **   ~~~   ** Supply-to-demand interface deck 1 energy check value iteration history trace: 2734.988340,2734.988340,2734.988340,2734.988340,2734.988340,2734.988339,2734.988339,2734.988339,2734.988339,2734.988339,
   ** Warning ** SimHVAC: Maximum iterations (20) exceeded for all HVAC loops, at ANNUAL, 04/28 09:15 - 09:22
   **   ~~~   ** The solution for one or more of the Air Loop HVAC systems did not appear to converge
   **   ~~~   ** Air System Named = CENTRAL SYSTEM did not converge for mass flow rate
   **   ~~~   ** Check values should be zero. Most Recent values listed first.
   **   ~~~   ** Demand-to-Supply interface mass flow rate check value iteration history trace: 7.145789E-002,7.145789E-002,7.145789E-002,7.145789E-002,7.145789E-002,7.145789E-002,7.145789E-002,7.145789E-002,7.145789E-002,7.145789E-002,
   **   ~~~   ** Supply-to-demand interface deck 1 mass flow rate check value iteration history trace: 7.145789E-002,7.145789E-002,7.145789E-002,7.145789E-002,7.145789E-002,7.145789E-002,7.145789E-002,7.145789E-002,7.145789E-002,7.145789E-002,
   **   ~~~   ** Air System Named = CENTRAL SYSTEM did not converge for energy
   **   ~~~   ** Check values should be zero. Most Recent values listed first.
   **   ~~~   ** Demand-to-Supply interface energy check value iteration history trace: 1411.041687,1411.041687,1411.041687,1411.041687,1411.041687,1411.041687,1411.041687,1411.041687,1411.041687,1411.041687,
   **   ~~~   ** Supply-to-demand interface deck 1 energy check value iteration history trace: 2493.404059,2493.404059,2493.404059,2493.404059,2493.404059,2493.404058,2493.404058,2493.404058,2493.404058,2493.404058,
   ** Warning ** SimHVAC: Maximum iterations (20) exceeded for all HVAC loops, at ANNUAL, 05/10 07:45 - 08:00
   **   ~~~   ** The solution for one or more of the Air Loop HVAC systems did not appear to converge
   **   ~~~   ** Air System Named = CENTRAL SYSTEM did not converge for mass flow rate
   **   ~~~   ** Check values should be zero. Most Recent values listed first.
   **   ~~~   ** Demand-to-Supply interface mass flow rate check value iteration history trace: 7.004539E-002,7.004539E-002,7.004539E-002,7.004539E-002,7.004539E-002,7.004539E-002,7.004539E-002,7.004539E-002,7.004539E-002,7.004539E-002,
   **   ~~~   ** Supply-to-demand interface deck 1 mass flow rate check value iteration history trace: 7.004539E-002,7.004539E-002,7.004539E-002,7.004539E-002,7.004539E-002,7.004539E-002,7.004539E-002,7.004539E-002,7.004539E-002,7.004539E-002,
   **   ~~~   ** Air System Named = CENTRAL SYSTEM did not converge for energy
   **   ~~~   ** Check values should be zero. Most Recent values listed first.
   **   ~~~   ** Demand-to-Supply interface energy check value iteration history trace: 1374.013773,1374.013773,1374.013773,1374.013773,1374.013773,1374.013773,1374.013773,1374.013773,1374.013773,1374.013773,
   **   ~~~   ** Supply-to-demand interface deck 1 energy check value iteration history trace: 2425.486011,2425.486011,2425.486011,2425.486010,2425.486010,2425.486010,2425.486010,2425.486010,2425.486010,2425.486010,
   ** Warning ** SimHVAC: Maximum iterations (20) exceeded for all HVAC loops, at ANNUAL, 05/12 11:15 - 11:30
   **   ~~~   ** The solution for one or more of the Air Loop HVAC systems did not appear to converge
   **   ~~~   ** Air System Named = CENTRAL SYSTEM did not converge for mass flow rate
   **   ~~~   ** Check values should be zero. Most Recent values listed first.
   **   ~~~   ** Demand-to-Supply interface mass flow rate check value iteration history trace: 4.584800E-002,4.584800E-002,4.584800E-002,4.584800E-002,4.584800E-002,4.584800E-002,4.584800E-002,4.584800E-002,4.584800E-002,4.584800E-002,
   **   ~~~   ** Supply-to-demand interface deck 1 mass flow rate check value iteration history trace: 4.584800E-002,4.584800E-002,4.584800E-002,4.584800E-002,4.584800E-002,4.584800E-002,4.584800E-002,4.584800E-002,4.584800E-002,4.584800E-002,
   **   ~~~   ** Air System Named = CENTRAL SYSTEM did not converge for energy
   **   ~~~   ** Check values should be zero. Most Recent values listed first.
   **   ~~~   ** Demand-to-Supply interface energy check value iteration history trace: 910.085174,910.085174,910.085174,910.085174,910.085174,910.085174,910.085174,910.085174,910.085174,910.085174,
   **   ~~~   ** Supply-to-demand interface deck 1 energy check value iteration history trace: 1574.535119,1574.535119,1574.535119,1574.535119,1574.535119,1574.535119,1574.535119,1574.535119,1574.535119,1574.535119,
   ** Warning ** SimHVAC: Maximum iterations (20) exceeded for all HVAC loops, at ANNUAL, 05/12 14:45 - 15:00
   **   ~~~   ** The solution for one or more of the Air Loop HVAC systems did not appear to converge
   **   ~~~   ** Air System Named = CENTRAL SYSTEM did not converge for mass flow rate
   **   ~~~   ** Check values should be zero. Most Recent values listed first.
   **   ~~~   ** Demand-to-Supply interface mass flow rate check value iteration history trace: 5.476127E-002,5.476127E-002,5.476127E-002,5.476127E-002,5.476127E-002,5.476127E-002,5.476127E-002,5.476127E-002,5.476127E-002,5.476127E-002,
   **   ~~~   ** Supply-to-demand interface deck 1 mass flow rate check value iteration history trace: 5.476127E-002,5.476127E-002,5.476127E-002,5.476127E-002,5.476127E-002,5.476127E-002,5.476127E-002,5.476127E-002,5.476127E-002,5.476127E-002,
   **   ~~~   ** Air System Named = CENTRAL SYSTEM did not converge for energy
   **   ~~~   ** Check values should be zero. Most Recent values listed first.
   **   ~~~   ** Demand-to-Supply interface energy check value iteration history trace: 1077.494248,1077.494248,1077.494247,1077.494247,1077.494247,1077.494247,1077.494247,1077.494247,1077.494247,1077.494247,
   **   ~~~   ** Supply-to-demand interface deck 1 energy check value iteration history trace: 1897.805987,1897.805987,1897.805987,1897.805987,1897.805986,1897.805986,1897.805986,1897.805986,1897.805986,1897.805986,
   ** Warning ** SimHVAC: Maximum iterations (20) exceeded for all HVAC loops, at ANNUAL, 06/02 07:00 - 07:15
   **   ~~~   ** The solution for one or more of the Air Loop HVAC systems did not appear to converge
   **   ~~~   ** Air System Named = CENTRAL SYSTEM did not converge for mass flow rate
   **   ~~~   ** Check values should be zero. Most Recent values listed first.
   **   ~~~   ** Demand-to-Supply interface mass flow rate check value iteration history trace: 6.015540E-002,6.015540E-002,6.015540E-002,6.015540E-002,6.015540E-002,6.015540E-002,6.015540E-002,6.015540E-002,6.015540E-002,6.015540E-002,
   **   ~~~   ** Supply-to-demand interface deck 1 mass flow rate check value iteration history trace: 6.015540E-002,6.015540E-002,6.015540E-002,6.015540E-002,6.015540E-002,6.015540E-002,6.015540E-002,6.015540E-002,6.015540E-002,6.015540E-002,
   **   ~~~   ** Air System Named = CENTRAL SYSTEM did not converge for energy
   **   ~~~   ** Check values should be zero. Most Recent values listed first.
   **   ~~~   ** Demand-to-Supply interface energy check value iteration history trace: 1432.391637,1432.391637,1432.391637,1432.391638,1432.391638,1432.391638,1432.391638,1432.391638,1432.391638,1432.391638,
   **   ~~~   ** Supply-to-demand interface deck 1 energy check value iteration history trace: 846.227696,846.227696,846.227696,846.227696,846.227696,846.227696,846.227696,846.227696,846.227697,846.227697,
   ** Warning ** SimHVAC: Maximum iterations (20) exceeded for all HVAC loops, at ANNUAL, 06/09 10:45 - 11:00
   **   ~~~   ** The solution for one or more of the Air Loop HVAC systems did not appear to converge
   **   ~~~   ** Air System Named = CENTRAL SYSTEM did not converge for mass flow rate
   **   ~~~   ** Check values should be zero. Most Recent values listed first.
   **   ~~~   ** Demand-to-Supply interface mass flow rate check value iteration history trace: 0.149280,0.149280,0.149280,0.149280,0.149280,0.149280,0.149280,0.149280,0.149280,0.149280,
   **   ~~~   ** Supply-to-demand interface deck 1 mass flow rate check value iteration history trace: 0.149280,0.149280,0.149280,0.149280,0.149280,0.149280,0.149280,0.149280,0.149280,0.149280,
   **   ~~~   ** Air System Named = CENTRAL SYSTEM did not converge for energy
   **   ~~~   ** Check values should be zero. Most Recent values listed first.
   **   ~~~   ** Demand-to-Supply interface energy check value iteration history trace: 3566.786546,3566.786546,3566.786546,3566.786547,3566.786547,3566.786547,3566.786547,3566.786547,3566.786548,3566.786548,
   **   ~~~   ** Supply-to-demand interface deck 1 energy check value iteration history trace: 1791.173760,1791.173760,1791.173760,1791.173760,1791.173760,1791.173760,1791.173760,1791.173760,1791.173761,1791.173761,
   ** Warning ** Temperature out of range [-100. to 200.] (PsyPsatFnTemp)
   **   ~~~   **  Routine=PsyTwbFnTdbWPb, Environment=ANNUAL, at Simulation time=11/18 02:30 - 02:45
   **   ~~~   **  Input Temperature=-174.10
   ************* Simulation Error Summary *************
   ** Warning ** The following Report Variables were requested but not generated -- check.rdd file
   **   ~~~   ** Either the IDF did not contain these elements, the variable name is misspelled,
   **   ~~~   ** or the requested variable is an advanced output which requires Output : Diagnostics, DisplayAdvancedReportVariables;
   ************* Key=*, VarName=BASEBOARD TOTAL HEATING ENERGY, Frequency=
   ************* Key=*, VarName=WATER HEATER NATURALGAS ENERGY, Frequency=
   ************* Key=*, VarName=COOLING COIL TOTAL HEATING ENERGY, Frequency=
   ************* There are 34 unused schedules in input.
   ************* There are 388 unused week schedules in input.
   ************* There are 396 unused day schedules in input.
   ************* Use Output:Diagnostics,DisplayUnusedSchedules; to see them.
   *************
   ************* ===== Recurring Error Summary =====
   ************* The following recurring error messages occurred.
   *************
   *************  ** Warning ** "TOTAL HOT WATER LOAD" - Target water temperature should be less than or equal to the hot water temperature error continues...
   *************  **   ~~~   **   This error occurred 105603 total times;
   *************  **   ~~~   **   during Warmup 0 times;
   *************  **   ~~~   **   during Sizing 0 times.
   *************  **   ~~~   **   Max=15.480804  Min=1.300106E-003
   *************
   *************  ** Warning ** SimHVAC: Exceeding Maximum iterations for all HVAC loops, during ANNUAL continues
   *************  **   ~~~   **   This error occurred 13 total times;
   *************  **   ~~~   **   during Warmup 0 times;
   *************  **   ~~~   **   during Sizing 0 times.
   *************
   *************  ** Warning ** Temperature out of range [-100. to 200.] (PsyPsatFnTemp)
   *************  **   ~~~   **   This error occurred 1 total times;
   *************  **   ~~~   **   during Warmup 0 times;
   *************  **   ~~~   **   during Sizing 0 times.
   *************  **   ~~~   **   Max=-174.105957 C  Min=-174.105957 C
   *************
   *************
   ************* ===== Final Error Summary =====
   ************* The following error categories occurred.  Consider correcting or noting.
   ************* Nominally Unused Constructions
   ************* ..The nominally unused constructions warning is provided to alert you to potential conditions that can cause
   ************* ..extra time during simulation. Each construction is calculated by the algorithm indicated in the HeatBalanceAlgorithm
   ************* ..object. You may remove the constructions indicated (when you use the DisplayExtraWarnings option).
   *************
   ************* EnergyPlus Warmup Error Summary. During Warmup: 1 Warning; 0 Severe Errors.
   ************* EnergyPlus Sizing Error Summary. During Sizing: 4 Warning; 0 Severe Errors.
   ************* EnergyPlus Completed Successfully-- 105649 Warning; 0 Severe Errors; Elapsed Time=00hr 01min 28.01sec
