Program Version,EnergyPlus, Version 22.2.0-c249759bad, YMD=2023.09.01 18:55,
   ************* Beginning Zone Sizing Calculations
   ** Warning ** ProcessScheduleInput: Schedule:Constant="ALWAYS ON DISCRETE", Schedule Type Limits Name="ONOFF" not found -- will not be validated
   ** Warning ** Foundation:Kiva="KIVA FOUNDATION", no Interior Horizontal Insulation Material Name defined
   **   ~~~   ** Interior Horizontal Insulation Depth will not be used.
   ** Warning ** CheckUsedConstructions: There are 15 nominally unused constructions in input.
   **   ~~~   ** Each Unused construction is shown.
   ************* Construction=INTERIOR FLOOR
   ************* Construction=INTERIOR WINDOW
   ************* Construction=EXTERIOR DOOR
   ************* Construction=INTERIOR DOOR
   ************* Construction=GABLE CONSTRUCTION
   ************* Construction=CRAWL_FLOOR
   ************* Construction=INSULATED PIPE
   ************* Construction=PLAIN PIPE
   ************* Construction=TDD PIPE
   ************* Construction=TDD DOME
   ************* Construction=TDD DIFFUSER
   ************* Construction=CRAWL WALL
   ************* Construction=CEILING-FLOOR-LAYER
   ************* Construction=SLAB CONSTRUCTION W FULL R10 INSULATION
   ************* Construction=SLAB CONSTRUCTION W FULL R5 INSULATION
   ** Warning ** GetDXCoils: Coil:Heating:DX:SingleSpeed="DX_HEATING_COIL" curve values
   **   ~~~   ** ... Defrost Energy Input Ratio Function of Temperature Curve Name = DEFROSTEIR output is not equal to 1.0 (+ or - 10%) at rated conditions.
   **   ~~~   ** ... Curve output at rated conditions = 0.152
   ************* Beginning System Sizing Calculations
   ************* Beginning Plant Sizing Calculations
   ** Warning ** SizeDXCoil Coil:Cooling:DX:SingleSpeed DX_COOLING_COIL
   **   ~~~   ** ...Gross Rated Total Cooling Capacity [W] will be limited by the maximum rated volume flow per rated total capacity ratio.
   **   ~~~   ** ...DX coil volume flow rate ( m3/s ) = 0.407909
   **   ~~~   ** ...Requested capacity ( W ) = 6295.162
   **   ~~~   ** ...Requested flow/capacity ratio ( m3/s/W ) = 6.479E-005
   **   ~~~   ** ...Maximum flow/capacity ratio ( m3/s/W ) = 6.041E-005
   **   ~~~   ** ...Adjusted capacity ( W ) = 6752.352
   ** Warning ** Coil:WaterHeating:AirToWaterHeatPump:Wrapped "HEAT PUMP WATER HEATER EVAPORATOR": Rated air volume flow rate per watt of rated total water heating capacity is out of range
   **   ~~~   ** Min Rated Vol Flow Per Watt=[4.027E-005], Rated Vol Flow Per Watt=[1.510E-004], Max Rated Vol Flow Per Watt=[8.056E-005]. See Input-Output Reference Manual for valid range.
   ************* SizeFan: : Potential issue with equipment sizing for Fan:OnOff HEAT PUMP WATER HEATER FAN
   **   ~~~   ** User-Specified Maximum Flow Rate [m3/s] = 0.22653
   **   ~~~   ** differs from Design Size Maximum Flow Rate [m3/s] = 7.55250E-002
   **   ~~~   ** This may, or may not, indicate mismatched component sizes.
   **   ~~~   ** Verify that the value entered is intended and is consistent with other components.
   ** Warning ** Water heater = WATER HEATER TANK:  Recovery Efficiency and Energy Factor could not be calculated during the test for standard ratings
   **   ~~~   ** Setpoint was never recovered and/or heater never turned on
   ** Warning ** Check input. Pump nominal power or motor efficiency is set to 0, for pump=MAINS PRESSURE
   ** Warning ** Output:Meter: invalid Key Name="ELECTRIC_RANGE:INTERIOREQUIPMENT:ELECTRICITY" - not found.
   ** Warning ** Output:Meter: invalid Key Name="ELECTRIC_DRYER:INTERIOREQUIPMENT:ELECTRICITY" - not found.
   ** Warning ** Output:Meter: invalid Key Name="HEATRECOVERY:ELECTRICITY" - not found.
   ** Warning ** Output:Meter: invalid Key Name="HEATING:NATURALGAS" - not found.
   ** Warning ** Output:Meter: invalid Key Name="WATERSYSTEMS:NATURALGAS" - not found.
   ** Warning ** Output:Meter: invalid Key Name="PROPANE:FACILITY" - not found.
   ** Warning ** Output:Meter: invalid Key Name="HEATING:PROPANE" - not found.
   ************* Testing Individual Branch Integrity
   ************* All Branches passed integrity testing
   ************* Testing Individual Supply Air Path Integrity
   ************* All Supply Air Paths passed integrity testing
   ************* Testing Individual Return Air Path Integrity
   ************* All Return Air Paths passed integrity testing
   ************* No node connection errors were found.
   ************* Beginning Simulation
   ** Warning ** AirflowNetwork::Solver::validate_distribution: Heat pump water heater is simulated along with an AirflowNetwork but is not included in the AirflowNetwork.
   ** Warning ** CalcEquipmentFlowRates: "TOTAL HOT WATER LOAD" - Target water temperature is greater than the hot water temperature by (0.83 C)
   **   ~~~   **  Environment=EXTREME_WINTER, at Simulation time=12/15 03:45 - 04:00
   **   ~~~   ** ...target water temperature     = 53.33 C
   **   ~~~   ** ...hot water temperature        = 52.50 C
   **   ~~~   ** ...Target water temperature should be less than or equal to the hot water temperature. Verify temperature setpoints and schedules.
   ** Severe  ** CheckWarmupConvergence: Loads Initialization, Zone="LIVING" did not converge after 25 warmup days.
   **   ~~~   ** See Warmup Convergence Information in .eio file for details.
   **   ~~~   ** ...Environment(RunPeriod)="ANNUAL"
   **   ~~~   ** ..Max Temp Comparison = 1.13E-002 vs Temperature Convergence Tolerance=5.00E-002 - Pass Convergence
   **   ~~~   ** ..Min Temp Comparison = 5.18E-002 vs Temperature Convergence Tolerance=5.00E-002 - Fail Convergence
   **   ~~~   ** ..Max Heat Load Comparison = 1.9209E-002 vs Loads Convergence Tolerance=5.00E-002 - Pass Convergence
   **   ~~~   ** ..Max Cool Load Comparison = 4.7438E-005 vs Loads Convergence Tolerance=5.00E-002 - Pass Convergence
   ** Severe  ** CheckWarmupConvergence: Loads Initialization, Zone="ATTIC" did not converge after 25 warmup days.
   **   ~~~   ** ...Environment(RunPeriod)="ANNUAL"
   **   ~~~   ** ..Max Temp Comparison = 0.12 vs Temperature Convergence Tolerance=5.00E-002 - Fail Convergence
   **   ~~~   ** ..Min Temp Comparison = 9.38E-003 vs Temperature Convergence Tolerance=5.00E-002 - Pass Convergence
   **   ~~~   ** ..Max Heat Load Comparison = 0.0000 vs Loads Convergence Tolerance=5.00E-002 - Pass Convergence
   **   ~~~   ** ..Max Cool Load Comparison = 0.0000 vs Loads Convergence Tolerance=5.00E-002 - Pass Convergence
   ** Warning ** SimHVAC: Maximum iterations (20) exceeded for all HVAC loops, at ANNUAL, 01/29 15:50 - 15:55
   **   ~~~   ** The solution for one or more of the Air Loop HVAC systems did not appear to converge
   **   ~~~   ** Air System Named = CENTRAL SYSTEM did not converge for mass flow rate
   **   ~~~   ** Check values should be zero. Most Recent values listed first.
   **   ~~~   ** Demand-to-Supply interface mass flow rate check value iteration history trace: 9.234029E-002,9.234029E-002,9.234029E-002,9.234029E-002,9.234029E-002,9.234029E-002,9.234029E-002,9.234029E-002,9.234029E-002,9.234029E-002,
   **   ~~~   ** Supply-to-demand interface deck 1 mass flow rate check value iteration history trace: 9.234029E-002,9.234029E-002,9.234029E-002,9.234029E-002,9.234029E-002,9.234029E-002,9.234029E-002,9.234029E-002,9.234029E-002,9.234029E-002,
   **   ~~~   ** Air System Named = CENTRAL SYSTEM did not converge for energy
   **   ~~~   ** Check values should be zero. Most Recent values listed first.
   **   ~~~   ** Demand-to-Supply interface energy check value iteration history trace: 1816.147097,1816.147097,1816.147097,1816.147096,1816.147096,1816.147096,1816.147096,1816.147096,1816.147096,1816.147096,
   **   ~~~   ** Supply-to-demand interface deck 1 energy check value iteration history trace: 2720.665936,2720.665935,2720.665935,2720.665935,2720.665935,2720.665935,2720.665934,2720.665934,2720.665934,2720.665934,
   ** Warning ** SimHVAC: Maximum iterations (20) exceeded for all HVAC loops, at ANNUAL, 02/16 12:45 - 12:50
   **   ~~~   ** The solution for one or more of the Air Loop HVAC systems did not appear to converge
   **   ~~~   ** Air System Named = CENTRAL SYSTEM did not converge for mass flow rate
   **   ~~~   ** Check values should be zero. Most Recent values listed first.
   **   ~~~   ** Demand-to-Supply interface mass flow rate check value iteration history trace: 7.626272E-002,7.626272E-002,7.626272E-002,7.626272E-002,7.626272E-002,7.626272E-002,7.626272E-002,7.626272E-002,7.626272E-002,7.626272E-002,
   **   ~~~   ** Supply-to-demand interface deck 1 mass flow rate check value iteration history trace: 7.626272E-002,7.626272E-002,7.626272E-002,7.626272E-002,7.626272E-002,7.626272E-002,7.626272E-002,7.626272E-002,7.626272E-002,7.626272E-002,
   **   ~~~   ** Air System Named = CENTRAL SYSTEM did not converge for energy
   **   ~~~   ** Check values should be zero. Most Recent values listed first.
   **   ~~~   ** Demand-to-Supply interface energy check value iteration history trace: 1511.322574,1511.322573,1511.322573,1511.322573,1511.322573,1511.322573,1511.322573,1511.322573,1511.322573,1511.322573,
   **   ~~~   ** Supply-to-demand interface deck 1 energy check value iteration history trace: 2292.032533,2292.032533,2292.032533,2292.032532,2292.032532,2292.032532,2292.032532,2292.032532,2292.032532,2292.032531,
   ** Warning ** SimHVAC: Maximum iterations (20) exceeded for all HVAC loops, at ANNUAL, 02/23 17:09 - 17:12
   **   ~~~   ** The solution for one or more of the Air Loop HVAC systems did not appear to converge
   **   ~~~   ** Air System Named = CENTRAL SYSTEM did not converge for mass flow rate
   **   ~~~   ** Check values should be zero. Most Recent values listed first.
   **   ~~~   ** Demand-to-Supply interface mass flow rate check value iteration history trace: 7.890263E-002,7.890263E-002,7.890263E-002,7.890263E-002,7.890263E-002,7.890263E-002,7.890263E-002,7.890263E-002,7.890263E-002,7.890263E-002,
   **   ~~~   ** Supply-to-demand interface deck 1 mass flow rate check value iteration history trace: 7.890263E-002,7.890263E-002,7.890263E-002,7.890263E-002,7.890263E-002,7.890263E-002,7.890263E-002,7.890263E-002,7.890263E-002,7.890263E-002,
   **   ~~~   ** Air System Named = CENTRAL SYSTEM did not converge for energy
   **   ~~~   ** Check values should be zero. Most Recent values listed first.
   **   ~~~   ** Demand-to-Supply interface energy check value iteration history trace: 1559.282279,1559.282279,1559.282279,1559.282279,1559.282279,1559.282279,1559.282279,1559.282278,1559.282278,1559.282278,
   **   ~~~   ** Supply-to-demand interface deck 1 energy check value iteration history trace: 2260.006519,2260.006518,2260.006518,2260.006518,2260.006518,2260.006518,2260.006518,2260.006517,2260.006517,2260.006517,
   ** Warning ** SimHVAC: Maximum iterations (20) exceeded for all HVAC loops, at ANNUAL, 02/28 16:30 - 16:45
   **   ~~~   ** The solution for one or more of the Air Loop HVAC systems did not appear to converge
   **   ~~~   ** Air System Named = CENTRAL SYSTEM did not converge for mass flow rate
   **   ~~~   ** Check values should be zero. Most Recent values listed first.
   **   ~~~   ** Demand-to-Supply interface mass flow rate check value iteration history trace: 7.790091E-002,7.790091E-002,7.790091E-002,7.790091E-002,7.790091E-002,7.790091E-002,7.790091E-002,7.790091E-002,7.790091E-002,7.790091E-002,
   **   ~~~   ** Supply-to-demand interface deck 1 mass flow rate check value iteration history trace: 7.790091E-002,7.790091E-002,7.790091E-002,7.790091E-002,7.790091E-002,7.790091E-002,7.790091E-002,7.790091E-002,7.790091E-002,7.790091E-002,
   **   ~~~   ** Air System Named = CENTRAL SYSTEM did not converge for energy
   **   ~~~   ** Check values should be zero. Most Recent values listed first.
   **   ~~~   ** Demand-to-Supply interface energy check value iteration history trace: 1528.272284,1528.272284,1528.272284,1528.272284,1528.272284,1528.272284,1528.272284,1528.272283,1528.272283,1528.272283,
   **   ~~~   ** Supply-to-demand interface deck 1 energy check value iteration history trace: 2205.760186,2205.760186,2205.760186,2205.760185,2205.760185,2205.760185,2205.760185,2205.760185,2205.760185,2205.760184,
   ** Warning ** SimHVAC: Maximum iterations (20) exceeded for all HVAC loops, at ANNUAL, 03/31 17:00 - 17:15
   **   ~~~   ** The solution for one or more of the Air Loop HVAC systems did not appear to converge
   **   ~~~   ** Air System Named = CENTRAL SYSTEM did not converge for mass flow rate
   **   ~~~   ** Check values should be zero. Most Recent values listed first.
   **   ~~~   ** Demand-to-Supply interface mass flow rate check value iteration history trace: 6.709986E-002,6.709986E-002,6.709986E-002,6.709986E-002,6.709986E-002,6.709986E-002,6.709986E-002,6.709986E-002,6.709986E-002,6.709986E-002,
   **   ~~~   ** Supply-to-demand interface deck 1 mass flow rate check value iteration history trace: 6.709986E-002,6.709986E-002,6.709986E-002,6.709986E-002,6.709986E-002,6.709986E-002,6.709986E-002,6.709986E-002,6.709986E-002,6.709986E-002,
   **   ~~~   ** Air System Named = CENTRAL SYSTEM did not converge for energy
   **   ~~~   ** Check values should be zero. Most Recent values listed first.
   **   ~~~   ** Demand-to-Supply interface energy check value iteration history trace: 1329.122520,1329.122520,1329.122520,1329.122520,1329.122520,1329.122520,1329.122519,1329.122519,1329.122519,1329.122519,
   **   ~~~   ** Supply-to-demand interface deck 1 energy check value iteration history trace: 2252.597498,2252.597498,2252.597498,2252.597497,2252.597497,2252.597497,2252.597497,2252.597497,2252.597497,2252.597497,
   ** Warning ** SimHVAC: Maximum iterations (20) exceeded for all HVAC loops, at ANNUAL, 03/31 23:00 - 23:15
   **   ~~~   ** The solution for one or more of the Air Loop HVAC systems did not appear to converge
   **   ~~~   ** Air System Named = CENTRAL SYSTEM did not converge for mass flow rate
   **   ~~~   ** Check values should be zero. Most Recent values listed first.
   **   ~~~   ** Demand-to-Supply interface mass flow rate check value iteration history trace: 6.267818E-002,6.267818E-002,6.267818E-002,6.267818E-002,6.267818E-002,6.267818E-002,6.267818E-002,6.267818E-002,6.267818E-002,6.267818E-002,
   **   ~~~   ** Supply-to-demand interface deck 1 mass flow rate check value iteration history trace: 6.267818E-002,6.267818E-002,6.267818E-002,6.267818E-002,6.267818E-002,6.267818E-002,6.267818E-002,6.267818E-002,6.267818E-002,6.267818E-002,
   **   ~~~   ** Air System Named = CENTRAL SYSTEM did not converge for energy
   **   ~~~   ** Check values should be zero. Most Recent values listed first.
   **   ~~~   ** Demand-to-Supply interface energy check value iteration history trace: 1170.934641,1170.934641,1170.934641,1170.934641,1170.934641,1170.934641,1170.934641,1170.934641,1170.934641,1170.934641,
   **   ~~~   ** Supply-to-demand interface deck 1 energy check value iteration history trace: 2036.901590,2036.901590,2036.901590,2036.901590,2036.901590,2036.901590,2036.901589,2036.901589,2036.901589,2036.901589,
   ** Warning ** SimHVAC: Maximum iterations (20) exceeded for all HVAC loops, at ANNUAL, 04/17 08:45 - 09:00
   **   ~~~   ** The solution for one or more of the Air Loop HVAC systems did not appear to converge
   **   ~~~   ** Air System Named = CENTRAL SYSTEM did not converge for mass flow rate
   **   ~~~   ** Check values should be zero. Most Recent values listed first.
   **   ~~~   ** Demand-to-Supply interface mass flow rate check value iteration history trace: 5.444924E-002,5.444924E-002,5.444924E-002,5.444924E-002,5.444924E-002,5.444924E-002,5.444924E-002,5.444924E-002,5.444924E-002,5.444924E-002,
   **   ~~~   ** Supply-to-demand interface deck 1 mass flow rate check value iteration history trace: 5.444924E-002,5.444924E-002,5.444924E-002,5.444924E-002,5.444924E-002,5.444924E-002,5.444924E-002,5.444924E-002,5.444924E-002,5.444924E-002,
   **   ~~~   ** Air System Named = CENTRAL SYSTEM did not converge for energy
   **   ~~~   ** Check values should be zero. Most Recent values listed first.
   **   ~~~   ** Demand-to-Supply interface energy check value iteration history trace: 1079.015517,1079.015517,1079.015517,1079.015517,1079.015517,1079.015517,1079.015517,1079.015516,1079.015516,1079.015516,
   **   ~~~   ** Supply-to-demand interface deck 1 energy check value iteration history trace: 1892.318083,1892.318083,1892.318083,1892.318083,1892.318083,1892.318082,1892.318082,1892.318082,1892.318082,1892.318082,
   ** Warning ** SimHVAC: Maximum iterations (20) exceeded for all HVAC loops, at ANNUAL, 06/03 07:20 - 07:22
   **   ~~~   ** The solution for one or more of the Air Loop HVAC systems did not appear to converge
   **   ~~~   ** Air System Named = CENTRAL SYSTEM did not converge for mass flow rate
   **   ~~~   ** Check values should be zero. Most Recent values listed first.
   **   ~~~   ** Demand-to-Supply interface mass flow rate check value iteration history trace: 0.172917,0.172917,0.172917,0.172917,0.172917,0.172917,0.172917,0.172917,0.172917,0.172917,
   **   ~~~   ** Supply-to-demand interface deck 1 mass flow rate check value iteration history trace: 0.172917,0.172917,0.172917,0.172917,0.172917,0.172917,0.172917,0.172917,0.172917,0.172917,
   **   ~~~   ** Air System Named = CENTRAL SYSTEM did not converge for energy
   **   ~~~   ** Check values should be zero. Most Recent values listed first.
   **   ~~~   ** Demand-to-Supply interface energy check value iteration history trace: 4085.703203,4085.703204,4085.703204,4085.703205,4085.703206,4085.703206,4085.703207,4085.703208,4085.703208,4085.703209,
   **   ~~~   ** Supply-to-demand interface deck 1 energy check value iteration history trace: 1918.594364,1918.594364,1918.594365,1918.594365,1918.594365,1918.594366,1918.594366,1918.594366,1918.594367,1918.594367,
   ** Warning ** SimHVAC: Maximum iterations (20) exceeded for all HVAC loops, at ANNUAL, 10/09 17:20 - 17:25
   **   ~~~   ** The solution for one or more of the Air Loop HVAC systems did not appear to converge
   **   ~~~   ** Air System Named = CENTRAL SYSTEM did not converge for mass flow rate
   **   ~~~   ** Check values should be zero. Most Recent values listed first.
   **   ~~~   ** Demand-to-Supply interface mass flow rate check value iteration history trace: 0.212817,0.212817,0.212817,0.212817,0.212817,0.212817,0.212817,0.212817,0.212817,0.212817,
   **   ~~~   ** Supply-to-demand interface deck 1 mass flow rate check value iteration history trace: 0.212817,0.212817,0.212817,0.212817,0.212817,0.212817,0.212817,0.212817,0.212817,0.212817,
   **   ~~~   ** Air System Named = CENTRAL SYSTEM did not converge for energy
   **   ~~~   ** Check values should be zero. Most Recent values listed first.
   **   ~~~   ** Demand-to-Supply interface energy check value iteration history trace: 5051.244367,5051.244368,5051.244368,5051.244368,5051.244369,5051.244369,5051.244369,5051.244370,5051.244370,5051.244370,
   **   ~~~   ** Supply-to-demand interface deck 1 energy check value iteration history trace: 2371.983835,2371.983835,2371.983835,2371.983835,2371.983835,2371.983836,2371.983836,2371.983836,2371.983836,2371.983836,
   ** Warning ** SimHVAC: Maximum iterations (20) exceeded for all HVAC loops, at ANNUAL, 10/10 21:45 - 22:00
   **   ~~~   ** The solution for one or more of the Air Loop HVAC systems did not appear to converge
   **   ~~~   ** Air System Named = CENTRAL SYSTEM did not converge for mass flow rate
   **   ~~~   ** Check values should be zero. Most Recent values listed first.
   **   ~~~   ** Demand-to-Supply interface mass flow rate check value iteration history trace: 7.516477E-002,7.516477E-002,7.516477E-002,7.516477E-002,7.516477E-002,7.516477E-002,7.516477E-002,7.516477E-002,7.516477E-002,7.516477E-002,
   **   ~~~   ** Supply-to-demand interface deck 1 mass flow rate check value iteration history trace: 7.516477E-002,7.516477E-002,7.516477E-002,7.516477E-002,7.516477E-002,7.516477E-002,7.516477E-002,7.516477E-002,7.516477E-002,7.516477E-002,
   **   ~~~   ** Air System Named = CENTRAL SYSTEM did not converge for energy
   **   ~~~   ** Check values should be zero. Most Recent values listed first.
   **   ~~~   ** Demand-to-Supply interface energy check value iteration history trace: 1784.085750,1784.085750,1784.085750,1784.085750,1784.085750,1784.085750,1784.085750,1784.085750,1784.085751,1784.085751,
   **   ~~~   ** Supply-to-demand interface deck 1 energy check value iteration history trace: 774.994815,774.994815,774.994815,774.994815,774.994815,774.994815,774.994815,774.994815,774.994815,774.994815,
   ** Warning ** SimHVAC: Maximum iterations (20) exceeded for all HVAC loops, at ANNUAL, 11/03 09:15 - 09:30
   **   ~~~   ** The solution for one or more of the Air Loop HVAC systems did not appear to converge
   **   ~~~   ** Air System Named = CENTRAL SYSTEM did not converge for mass flow rate
   **   ~~~   ** Check values should be zero. Most Recent values listed first.
   **   ~~~   ** Demand-to-Supply interface mass flow rate check value iteration history trace: 3.914315E-002,3.914315E-002,3.914315E-002,3.914315E-002,3.914315E-002,3.914315E-002,3.914315E-002,3.914315E-002,3.914315E-002,3.914315E-002,
   **   ~~~   ** Supply-to-demand interface deck 1 mass flow rate check value iteration history trace: 3.914315E-002,3.914315E-002,3.914315E-002,3.914315E-002,3.914315E-002,3.914315E-002,3.914315E-002,3.914315E-002,3.914315E-002,3.914315E-002,
   **   ~~~   ** Air System Named = CENTRAL SYSTEM did not converge for energy
   **   ~~~   ** Check values should be zero. Most Recent values listed first.
   **   ~~~   ** Demand-to-Supply interface energy check value iteration history trace: 775.682503,775.682503,775.682502,775.682502,775.682502,775.682502,775.682502,775.682502,775.682502,775.682502,
   **   ~~~   ** Supply-to-demand interface deck 1 energy check value iteration history trace: 1318.444357,1318.444357,1318.444357,1318.444357,1318.444357,1318.444357,1318.444357,1318.444357,1318.444356,1318.444356,
   ** Warning ** SimHVAC: Maximum iterations (20) exceeded for all HVAC loops, at ANNUAL, 12/01 11:11 - 11:15
   **   ~~~   ** The solution for one or more of the Air Loop HVAC systems did not appear to converge
   **   ~~~   ** Air System Named = CENTRAL SYSTEM did not converge for mass flow rate
   **   ~~~   ** Check values should be zero. Most Recent values listed first.
   **   ~~~   ** Demand-to-Supply interface mass flow rate check value iteration history trace: 5.550737E-002,5.550737E-002,5.550737E-002,5.550737E-002,5.550737E-002,5.550737E-002,5.550737E-002,5.550737E-002,5.550737E-002,5.550737E-002,
   **   ~~~   ** Supply-to-demand interface deck 1 mass flow rate check value iteration history trace: 5.550737E-002,5.550737E-002,5.550737E-002,5.550737E-002,5.550737E-002,5.550737E-002,5.550737E-002,5.550737E-002,5.550737E-002,5.550737E-002,
   **   ~~~   ** Air System Named = CENTRAL SYSTEM did not converge for energy
   **   ~~~   ** Check values should be zero. Most Recent values listed first.
   **   ~~~   ** Demand-to-Supply interface energy check value iteration history trace: 1093.228161,1093.228161,1093.228161,1093.228161,1093.228161,1093.228161,1093.228161,1093.228161,1093.228161,1093.228161,
   **   ~~~   ** Supply-to-demand interface deck 1 energy check value iteration history trace: 1970.314733,1970.314733,1970.314733,1970.314733,1970.314733,1970.314733,1970.314733,1970.314733,1970.314732,1970.314732,
   ************* Simulation Error Summary *************
   ** Warning ** The following Report Variables were requested but not generated -- check.rdd file
   **   ~~~   ** Either the IDF did not contain these elements, the variable name is misspelled,
   **   ~~~   ** or the requested variable is an advanced output which requires Output : Diagnostics, DisplayAdvancedReportVariables;
   ************* Key=*, VarName=BASEBOARD TOTAL HEATING ENERGY, Frequency=
   ************* Key=*, VarName=WATER HEATER NATURALGAS ENERGY, Frequency=
   ************* Key=*, VarName=COOLING COIL TOTAL HEATING ENERGY, Frequency=
   ************* There are 34 unused schedules in input.
   ************* There are 388 unused week schedules in input.
   ************* There are 396 unused day schedules in input.
   ************* Use Output:Diagnostics,DisplayUnusedSchedules; to see them.
   *************
   ************* ===== Recurring Error Summary =====
   ************* The following recurring error messages occurred.
   *************
   *************  ** Warning ** "TOTAL HOT WATER LOAD" - Target water temperature should be less than or equal to the hot water temperature error continues...
   *************  **   ~~~   **   This error occurred 52997 total times;
   *************  **   ~~~   **   during Warmup 0 times;
   *************  **   ~~~   **   during Sizing 0 times.
   *************  **   ~~~   **   Max=6.623354  Min=3.872029E-004
   *************
   *************
   ************* ===== Final Error Summary =====
   ************* The following error categories occurred.  Consider correcting or noting.
   ************* Loads Initialization did not Converge
   ************* ..1) very high thermal mass such as very thick concrete (solution: increase max number of warmup
   ************* ..   days in the BUILDING object);
   ************* ..2) moderate mass and inadequate space conditioning such that the building keeps getting warmer
   ************* ..   and warmer on successive days (solution: add HVAC, check building thermal properties,
   ************* ..   check if infiltration is included, make sure HVAC properly controlled);
   ************* ..3) a soil layer modeled below the concrete slab - (solution remove this layer and read about
   ************* ..   ground temperatures in the Auxiliary Programs document).
   ************* ..4) unreasonable (too small) limits in the BUILDING object for temperature (.4 default) or
   ************* ..   loads tolerances (.04 default)
   ************* Nominally Unused Constructions
   ************* ..The nominally unused constructions warning is provided to alert you to potential conditions that can cause
   ************* ..extra time during simulation. Each construction is calculated by the algorithm indicated in the HeatBalanceAlgorithm
   ************* ..object. You may remove the constructions indicated (when you use the DisplayExtraWarnings option).
   *************
   ************* EnergyPlus Warmup Error Summary. During Warmup: 1 Warning; 2 Severe Errors.
   ************* EnergyPlus Sizing Error Summary. During Sizing: 4 Warning; 0 Severe Errors.
   ************* EnergyPlus Completed Successfully-- 53027 Warning; 2 Severe Errors; Elapsed Time=00hr 01min 29.26sec
