Program Version,EnergyPlus, Version 22.2.0-c249759bad, YMD=2023.09.01 19:20,
   ************* Beginning Zone Sizing Calculations
   ** Warning ** ProcessScheduleInput: Schedule:Constant="ALWAYS ON DISCRETE", Schedule Type Limits Name="ONOFF" not found -- will not be validated
   ** Warning ** Foundation:Kiva="KIVA FOUNDATION", no Interior Horizontal Insulation Material Name defined
   **   ~~~   ** Interior Horizontal Insulation Depth will not be used.
   ** Warning ** CheckUsedConstructions: There are 15 nominally unused constructions in input.
   **   ~~~   ** Each Unused construction is shown.
   ************* Construction=INTERIOR FLOOR
   ************* Construction=INTERIOR WINDOW
   ************* Construction=EXTERIOR DOOR
   ************* Construction=INTERIOR DOOR
   ************* Construction=GABLE CONSTRUCTION
   ************* Construction=CRAWL_FLOOR
   ************* Construction=INSULATED PIPE
   ************* Construction=PLAIN PIPE
   ************* Construction=TDD PIPE
   ************* Construction=TDD DOME
   ************* Construction=TDD DIFFUSER
   ************* Construction=CRAWL WALL
   ************* Construction=CEILING-FLOOR-LAYER
   ************* Construction=SLAB CONSTRUCTION W FULL R10 INSULATION
   ************* Construction=SLAB CONSTRUCTION W FULL R5 INSULATION
   ** Warning ** GetDXCoils: Coil:Heating:DX:SingleSpeed="DX_HEATING_COIL" curve values
   **   ~~~   ** ... Defrost Energy Input Ratio Function of Temperature Curve Name = DEFROSTEIR output is not equal to 1.0 (+ or - 10%) at rated conditions.
   **   ~~~   ** ... Curve output at rated conditions = 0.152
   ************* Beginning System Sizing Calculations
   ************* Beginning Plant Sizing Calculations
   ** Warning ** SizeDXCoil Coil:Cooling:DX:SingleSpeed DX_COOLING_COIL
   **   ~~~   ** ...Gross Rated Total Cooling Capacity [W] will be limited by the maximum rated volume flow per rated total capacity ratio.
   **   ~~~   ** ...DX coil volume flow rate ( m3/s ) = 0.504706
   **   ~~~   ** ...Requested capacity ( W ) = 6362.009
   **   ~~~   ** ...Requested flow/capacity ratio ( m3/s/W ) = 7.933E-005
   **   ~~~   ** ...Maximum flow/capacity ratio ( m3/s/W ) = 6.041E-005
   **   ~~~   ** ...Adjusted capacity ( W ) = 8354.677
   ** Warning ** Coil:WaterHeating:AirToWaterHeatPump:Wrapped "HEAT PUMP WATER HEATER EVAPORATOR": Rated air volume flow rate per watt of rated total water heating capacity is out of range
   **   ~~~   ** Min Rated Vol Flow Per Watt=[4.027E-005], Rated Vol Flow Per Watt=[1.510E-004], Max Rated Vol Flow Per Watt=[8.056E-005]. See Input-Output Reference Manual for valid range.
   ************* SizeFan: : Potential issue with equipment sizing for Fan:OnOff HEAT PUMP WATER HEATER FAN
   **   ~~~   ** User-Specified Maximum Flow Rate [m3/s] = 0.22653
   **   ~~~   ** differs from Design Size Maximum Flow Rate [m3/s] = 7.55250E-002
   **   ~~~   ** This may, or may not, indicate mismatched component sizes.
   **   ~~~   ** Verify that the value entered is intended and is consistent with other components.
   ** Warning ** Water heater = WATER HEATER TANK:  Recovery Efficiency and Energy Factor could not be calculated during the test for standard ratings
   **   ~~~   ** Setpoint was never recovered and/or heater never turned on
   ** Warning ** Check input. Pump nominal power or motor efficiency is set to 0, for pump=MAINS PRESSURE
   ** Warning ** Output:Meter: invalid Key Name="ELECTRIC_RANGE:INTERIOREQUIPMENT:ELECTRICITY" - not found.
   ** Warning ** Output:Meter: invalid Key Name="ELECTRIC_DRYER:INTERIOREQUIPMENT:ELECTRICITY" - not found.
   ** Warning ** Output:Meter: invalid Key Name="HEATRECOVERY:ELECTRICITY" - not found.
   ** Warning ** Output:Meter: invalid Key Name="HEATING:NATURALGAS" - not found.
   ** Warning ** Output:Meter: invalid Key Name="WATERSYSTEMS:NATURALGAS" - not found.
   ** Warning ** Output:Meter: invalid Key Name="PROPANE:FACILITY" - not found.
   ** Warning ** Output:Meter: invalid Key Name="HEATING:PROPANE" - not found.
   ************* Testing Individual Branch Integrity
   ************* All Branches passed integrity testing
   ************* Testing Individual Supply Air Path Integrity
   ************* All Supply Air Paths passed integrity testing
   ************* Testing Individual Return Air Path Integrity
   ************* All Return Air Paths passed integrity testing
   ************* No node connection errors were found.
   ************* Beginning Simulation
   ** Warning ** AirflowNetwork::Solver::validate_distribution: Heat pump water heater is simulated along with an AirflowNetwork but is not included in the AirflowNetwork.
   ** Warning ** CalcEquipmentFlowRates: "TOTAL HOT WATER LOAD" - Target water temperature is greater than the hot water temperature by (0.22 C)
   **   ~~~   **  Environment=EXTREME_WINTER, at Simulation time=12/22 06:45 - 07:00
   **   ~~~   ** ...target water temperature     = 53.33 C
   **   ~~~   ** ...hot water temperature        = 53.12 C
   **   ~~~   ** ...Target water temperature should be less than or equal to the hot water temperature. Verify temperature setpoints and schedules.
   ** Severe  ** CheckWarmupConvergence: Loads Initialization, Zone="LIVING" did not converge after 25 warmup days.
   **   ~~~   ** See Warmup Convergence Information in .eio file for details.
   **   ~~~   ** ...Environment(SizingPeriod)="EXTREME_SUMMER"
   **   ~~~   ** ..Max Temp Comparison = 2.66E-004 vs Temperature Convergence Tolerance=5.00E-002 - Pass Convergence
   **   ~~~   ** ..Min Temp Comparison = 0.30 vs Temperature Convergence Tolerance=5.00E-002 - Fail Convergence
   **   ~~~   ** ..Max Heat Load Comparison = 0.5506 vs Loads Convergence Tolerance=5.00E-002 - Pass Convergence
   **   ~~~   ** ..Max Cool Load Comparison = 1.0141E-002 vs Loads Convergence Tolerance=5.00E-002 - Pass Convergence
   ** Severe  ** CheckWarmupConvergence: Loads Initialization, Zone="ATTIC" did not converge after 25 warmup days.
   **   ~~~   ** ...Environment(SizingPeriod)="EXTREME_SUMMER"
   **   ~~~   ** ..Max Temp Comparison = 5.81E-002 vs Temperature Convergence Tolerance=5.00E-002 - Fail Convergence
   **   ~~~   ** ..Min Temp Comparison = 1.28E-003 vs Temperature Convergence Tolerance=5.00E-002 - Pass Convergence
   **   ~~~   ** ..Max Heat Load Comparison = 0.0000 vs Loads Convergence Tolerance=5.00E-002 - Pass Convergence
   **   ~~~   ** ..Max Cool Load Comparison = 0.0000 vs Loads Convergence Tolerance=5.00E-002 - Pass Convergence
   ** Warning ** SimHVAC: Maximum iterations (20) exceeded for all HVAC loops, at ANNUAL, 02/02 13:30 - 13:38
   **   ~~~   ** The solution for one or more of the Air Loop HVAC systems did not appear to converge
   **   ~~~   ** Air System Named = CENTRAL SYSTEM did not converge for mass flow rate
   **   ~~~   ** Check values should be zero. Most Recent values listed first.
   **   ~~~   ** Demand-to-Supply interface mass flow rate check value iteration history trace: 6.480188E-002,6.480188E-002,6.480188E-002,6.480188E-002,6.480188E-002,6.480188E-002,6.480188E-002,6.480188E-002,6.480188E-002,6.480188E-002,
   **   ~~~   ** Supply-to-demand interface deck 1 mass flow rate check value iteration history trace: 6.480188E-002,6.480188E-002,6.480188E-002,6.480188E-002,6.480188E-002,6.480188E-002,6.480188E-002,6.480188E-002,6.480188E-002,6.480188E-002,
   **   ~~~   ** Air System Named = CENTRAL SYSTEM did not converge for energy
   **   ~~~   ** Check values should be zero. Most Recent values listed first.
   **   ~~~   ** Demand-to-Supply interface energy check value iteration history trace: 1284.201445,1284.201445,1284.201445,1284.201445,1284.201444,1284.201444,1284.201444,1284.201444,1284.201444,1284.201444,
   **   ~~~   ** Supply-to-demand interface deck 1 energy check value iteration history trace: 2047.850638,2047.850638,2047.850638,2047.850638,2047.850638,2047.850638,2047.850638,2047.850637,2047.850637,2047.850637,
   ** Warning ** SimHVAC: Maximum iterations (20) exceeded for all HVAC loops, at ANNUAL, 02/19 20:45 - 20:50
   **   ~~~   ** The solution for one or more of the Air Loop HVAC systems did not appear to converge
   **   ~~~   ** Air System Named = CENTRAL SYSTEM did not converge for mass flow rate
   **   ~~~   ** Check values should be zero. Most Recent values listed first.
   **   ~~~   ** Demand-to-Supply interface mass flow rate check value iteration history trace: 8.195357E-002,8.195357E-002,8.195357E-002,8.195357E-002,8.195357E-002,8.195357E-002,8.195357E-002,8.195357E-002,8.195357E-002,8.195357E-002,
   **   ~~~   ** Supply-to-demand interface deck 1 mass flow rate check value iteration history trace: 8.195357E-002,8.195357E-002,8.195357E-002,8.195357E-002,8.195357E-002,8.195357E-002,8.195357E-002,8.195357E-002,8.195357E-002,8.195357E-002,
   **   ~~~   ** Air System Named = CENTRAL SYSTEM did not converge for energy
   **   ~~~   ** Check values should be zero. Most Recent values listed first.
   **   ~~~   ** Demand-to-Supply interface energy check value iteration history trace: 1618.007780,1618.007780,1618.007780,1618.007780,1618.007780,1618.007780,1618.007780,1618.007780,1618.007780,1618.007779,
   **   ~~~   ** Supply-to-demand interface deck 1 energy check value iteration history trace: 2497.287006,2497.287006,2497.287006,2497.287006,2497.287005,2497.287005,2497.287005,2497.287005,2497.287005,2497.287005,
   ** Warning ** SimHVAC: Maximum iterations (20) exceeded for all HVAC loops, at ANNUAL, 03/03 10:00 - 10:02
   **   ~~~   ** The solution for one or more of the Air Loop HVAC systems did not appear to converge
   **   ~~~   ** Air System Named = CENTRAL SYSTEM did not converge for mass flow rate
   **   ~~~   ** Check values should be zero. Most Recent values listed first.
   **   ~~~   ** Demand-to-Supply interface mass flow rate check value iteration history trace: 4.987315E-002,4.987315E-002,4.987315E-002,4.987315E-002,4.987315E-002,4.987315E-002,4.987315E-002,4.987315E-002,4.987315E-002,4.987315E-002,
   **   ~~~   ** Supply-to-demand interface deck 1 mass flow rate check value iteration history trace: 4.987315E-002,4.987315E-002,4.987315E-002,4.987315E-002,4.987315E-002,4.987315E-002,4.987315E-002,4.987315E-002,4.987315E-002,4.987315E-002,
   **   ~~~   ** Air System Named = CENTRAL SYSTEM did not converge for energy
   **   ~~~   ** Check values should be zero. Most Recent values listed first.
   **   ~~~   ** Demand-to-Supply interface energy check value iteration history trace: 988.347507,988.347507,988.347507,988.347507,988.347507,988.347507,988.347507,988.347507,988.347507,988.347507,
   **   ~~~   ** Supply-to-demand interface deck 1 energy check value iteration history trace: 1852.787769,1852.787769,1852.787769,1852.787769,1852.787769,1852.787769,1852.787769,1852.787769,1852.787769,1852.787769,
   ** Warning ** SimHVAC: Maximum iterations (20) exceeded for all HVAC loops, at ANNUAL, 03/09 14:15 - 14:30
   **   ~~~   ** The solution for one or more of the Air Loop HVAC systems did not appear to converge
   **   ~~~   ** Air System Named = CENTRAL SYSTEM did not converge for mass flow rate
   **   ~~~   ** Check values should be zero. Most Recent values listed first.
   **   ~~~   ** Demand-to-Supply interface mass flow rate check value iteration history trace: 4.200315E-002,4.200315E-002,4.200315E-002,4.200315E-002,4.200315E-002,4.200315E-002,4.200315E-002,4.200315E-002,4.200315E-002,4.200315E-002,
   **   ~~~   ** Supply-to-demand interface deck 1 mass flow rate check value iteration history trace: 4.200315E-002,4.200315E-002,4.200315E-002,4.200315E-002,4.200315E-002,4.200315E-002,4.200315E-002,4.200315E-002,4.200315E-002,4.200315E-002,
   **   ~~~   ** Air System Named = CENTRAL SYSTEM did not converge for energy
   **   ~~~   ** Check values should be zero. Most Recent values listed first.
   **   ~~~   ** Demand-to-Supply interface energy check value iteration history trace: 823.244649,823.244649,823.244649,823.244649,823.244649,823.244648,823.244648,823.244648,823.244648,823.244648,
   **   ~~~   ** Supply-to-demand interface deck 1 energy check value iteration history trace: 1516.262079,1516.262079,1516.262079,1516.262079,1516.262079,1516.262079,1516.262079,1516.262079,1516.262079,1516.262079,
   ** Warning ** SimHVAC: Maximum iterations (20) exceeded for all HVAC loops, at ANNUAL, 03/11 11:00 - 11:15
   **   ~~~   ** The solution for one or more of the Air Loop HVAC systems did not appear to converge
   **   ~~~   ** Air System Named = CENTRAL SYSTEM did not converge for mass flow rate
   **   ~~~   ** Check values should be zero. Most Recent values listed first.
   **   ~~~   ** Demand-to-Supply interface mass flow rate check value iteration history trace: 7.757175E-002,7.757175E-002,7.757175E-002,7.757175E-002,7.757175E-002,7.757175E-002,7.757175E-002,7.757175E-002,7.757175E-002,7.757175E-002,
   **   ~~~   ** Supply-to-demand interface deck 1 mass flow rate check value iteration history trace: 7.757175E-002,7.757175E-002,7.757175E-002,7.757175E-002,7.757175E-002,7.757175E-002,7.757175E-002,7.757175E-002,7.757175E-002,7.757175E-002,
   **   ~~~   ** Air System Named = CENTRAL SYSTEM did not converge for energy
   **   ~~~   ** Check values should be zero. Most Recent values listed first.
   **   ~~~   ** Demand-to-Supply interface energy check value iteration history trace: 1536.443825,1536.443825,1536.443825,1536.443825,1536.443825,1536.443825,1536.443825,1536.443825,1536.443825,1536.443825,
   **   ~~~   ** Supply-to-demand interface deck 1 energy check value iteration history trace: 2535.703794,2535.703794,2535.703794,2535.703794,2535.703794,2535.703794,2535.703794,2535.703793,2535.703793,2535.703793,
   ** Warning ** SimHVAC: Maximum iterations (20) exceeded for all HVAC loops, at ANNUAL, 03/14 11:06 - 11:08
   **   ~~~   ** The solution for one or more of the Air Loop HVAC systems did not appear to converge
   **   ~~~   ** Air System Named = CENTRAL SYSTEM did not converge for mass flow rate
   **   ~~~   ** Check values should be zero. Most Recent values listed first.
   **   ~~~   ** Demand-to-Supply interface mass flow rate check value iteration history trace: 5.235504E-002,5.235504E-002,5.235504E-002,5.235504E-002,5.235504E-002,5.235504E-002,5.235504E-002,5.235504E-002,5.235504E-002,5.235504E-002,
   **   ~~~   ** Supply-to-demand interface deck 1 mass flow rate check value iteration history trace: 5.235504E-002,5.235504E-002,5.235504E-002,5.235504E-002,5.235504E-002,5.235504E-002,5.235504E-002,5.235504E-002,5.235504E-002,5.235504E-002,
   **   ~~~   ** Air System Named = CENTRAL SYSTEM did not converge for energy
   **   ~~~   ** Check values should be zero. Most Recent values listed first.
   **   ~~~   ** Demand-to-Supply interface energy check value iteration history trace: 1033.315117,1033.315117,1033.315117,1033.315117,1033.315117,1033.315117,1033.315117,1033.315117,1033.315117,1033.315117,
   **   ~~~   ** Supply-to-demand interface deck 1 energy check value iteration history trace: 1867.846139,1867.846139,1867.846139,1867.846139,1867.846139,1867.846139,1867.846139,1867.846139,1867.846139,1867.846139,
   ** Warning ** SimHVAC: Maximum iterations (20) exceeded for all HVAC loops, at ANNUAL, 03/30 14:15 - 14:30
   **   ~~~   ** The solution for one or more of the Air Loop HVAC systems did not appear to converge
   **   ~~~   ** Air System Named = CENTRAL SYSTEM did not converge for mass flow rate
   **   ~~~   ** Check values should be zero. Most Recent values listed first.
   **   ~~~   ** Demand-to-Supply interface mass flow rate check value iteration history trace: 5.008316E-002,5.008316E-002,5.008316E-002,5.008316E-002,5.008316E-002,5.008316E-002,5.008316E-002,5.008316E-002,5.008316E-002,5.008316E-002,
   **   ~~~   ** Supply-to-demand interface deck 1 mass flow rate check value iteration history trace: 5.008316E-002,5.008316E-002,5.008316E-002,5.008316E-002,5.008316E-002,5.008316E-002,5.008316E-002,5.008316E-002,5.008316E-002,5.008316E-002,
   **   ~~~   ** Air System Named = CENTRAL SYSTEM did not converge for energy
   **   ~~~   ** Check values should be zero. Most Recent values listed first.
   **   ~~~   ** Demand-to-Supply interface energy check value iteration history trace: 991.033598,991.033598,991.033598,991.033598,991.033597,991.033597,991.033597,991.033597,991.033597,991.033597,
   **   ~~~   ** Supply-to-demand interface deck 1 energy check value iteration history trace: 1659.729535,1659.729535,1659.729535,1659.729535,1659.729535,1659.729534,1659.729534,1659.729534,1659.729534,1659.729534,
   ** Warning ** Temperature out of range [-100. to 200.] (PsyPsatFnTemp)
   **   ~~~   **  Routine=PsyTwbFnTdbWPb, Environment=ANNUAL, at Simulation time=03/31 15:30 - 15:32
   **   ~~~   **  Input Temperature=-356.79
   ** Warning ** SimHVAC: Maximum iterations (20) exceeded for all HVAC loops, at ANNUAL, 04/05 11:19 - 11:22
   **   ~~~   ** The solution for one or more of the Air Loop HVAC systems did not appear to converge
   **   ~~~   ** Air System Named = CENTRAL SYSTEM did not converge for mass flow rate
   **   ~~~   ** Check values should be zero. Most Recent values listed first.
   **   ~~~   ** Demand-to-Supply interface mass flow rate check value iteration history trace: 4.491901E-002,4.491901E-002,4.491901E-002,4.491901E-002,4.491901E-002,4.491901E-002,4.491901E-002,4.491901E-002,4.491901E-002,4.491901E-002,
   **   ~~~   ** Supply-to-demand interface deck 1 mass flow rate check value iteration history trace: 4.491901E-002,4.491901E-002,4.491901E-002,4.491901E-002,4.491901E-002,4.491901E-002,4.491901E-002,4.491901E-002,4.491901E-002,4.491901E-002,
   **   ~~~   ** Air System Named = CENTRAL SYSTEM did not converge for energy
   **   ~~~   ** Check values should be zero. Most Recent values listed first.
   **   ~~~   ** Demand-to-Supply interface energy check value iteration history trace: 882.784995,882.784995,882.784995,882.784995,882.784995,882.784995,882.784995,882.784995,882.784995,882.784995,
   **   ~~~   ** Supply-to-demand interface deck 1 energy check value iteration history trace: 1714.700395,1714.700395,1714.700395,1714.700394,1714.700394,1714.700394,1714.700394,1714.700394,1714.700394,1714.700394,
   ** Warning ** SimHVAC: Maximum iterations (20) exceeded for all HVAC loops, at ANNUAL, 04/08 10:00 - 10:15
   **   ~~~   ** The solution for one or more of the Air Loop HVAC systems did not appear to converge
   **   ~~~   ** Air System Named = CENTRAL SYSTEM did not converge for mass flow rate
   **   ~~~   ** Check values should be zero. Most Recent values listed first.
   **   ~~~   ** Demand-to-Supply interface mass flow rate check value iteration history trace: 6.437801E-002,6.437801E-002,6.437801E-002,6.437801E-002,6.437801E-002,6.437800E-002,6.437800E-002,6.437800E-002,6.437800E-002,6.437800E-002,
   **   ~~~   ** Supply-to-demand interface deck 1 mass flow rate check value iteration history trace: 6.437801E-002,6.437801E-002,6.437801E-002,6.437801E-002,6.437801E-002,6.437800E-002,6.437800E-002,6.437800E-002,6.437800E-002,6.437800E-002,
   **   ~~~   ** Air System Named = CENTRAL SYSTEM did not converge for energy
   **   ~~~   ** Check values should be zero. Most Recent values listed first.
   **   ~~~   ** Demand-to-Supply interface energy check value iteration history trace: 1272.621929,1272.621929,1272.621929,1272.621929,1272.621929,1272.621929,1272.621929,1272.621929,1272.621929,1272.621928,
   **   ~~~   ** Supply-to-demand interface deck 1 energy check value iteration history trace: 2322.916737,2322.916736,2322.916736,2322.916736,2322.916736,2322.916736,2322.916736,2322.916736,2322.916736,2322.916736,
   ** Warning ** SimHVAC: Maximum iterations (20) exceeded for all HVAC loops, at ANNUAL, 04/13 10:30 - 10:45
   **   ~~~   ** The solution for one or more of the Air Loop HVAC systems did not appear to converge
   **   ~~~   ** Air System Named = CENTRAL SYSTEM did not converge for mass flow rate
   **   ~~~   ** Check values should be zero. Most Recent values listed first.
   **   ~~~   ** Demand-to-Supply interface mass flow rate check value iteration history trace: 6.356048E-002,6.356048E-002,6.356048E-002,6.356048E-002,6.356048E-002,6.356048E-002,6.356048E-002,6.356048E-002,6.356048E-002,6.356048E-002,
   **   ~~~   ** Supply-to-demand interface deck 1 mass flow rate check value iteration history trace: 6.356048E-002,6.356048E-002,6.356048E-002,6.356048E-002,6.356048E-002,6.356048E-002,6.356048E-002,6.356048E-002,6.356048E-002,6.356048E-002,
   **   ~~~   ** Air System Named = CENTRAL SYSTEM did not converge for energy
   **   ~~~   ** Check values should be zero. Most Recent values listed first.
   **   ~~~   ** Demand-to-Supply interface energy check value iteration history trace: 1259.502942,1259.502942,1259.502942,1259.502942,1259.502942,1259.502942,1259.502941,1259.502941,1259.502941,1259.502941,
   **   ~~~   ** Supply-to-demand interface deck 1 energy check value iteration history trace: 2301.939237,2301.939237,2301.939237,2301.939236,2301.939236,2301.939236,2301.939236,2301.939236,2301.939236,2301.939236,
   ** Warning ** SimHVAC: Maximum iterations (20) exceeded for all HVAC loops, at ANNUAL, 04/13 10:30 - 10:35
   **   ~~~   ** The solution for one or more of the Air Loop HVAC systems did not appear to converge
   **   ~~~   ** Air System Named = CENTRAL SYSTEM did not converge for mass flow rate
   **   ~~~   ** Check values should be zero. Most Recent values listed first.
   **   ~~~   ** Demand-to-Supply interface mass flow rate check value iteration history trace: 6.341198E-002,6.341198E-002,6.341198E-002,6.341198E-002,6.341198E-002,6.341198E-002,6.341198E-002,6.341198E-002,6.341198E-002,6.341198E-002,
   **   ~~~   ** Supply-to-demand interface deck 1 mass flow rate check value iteration history trace: 6.341198E-002,6.341198E-002,6.341198E-002,6.341198E-002,6.341198E-002,6.341198E-002,6.341198E-002,6.341198E-002,6.341198E-002,6.341198E-002,
   **   ~~~   ** Air System Named = CENTRAL SYSTEM did not converge for energy
   **   ~~~   ** Check values should be zero. Most Recent values listed first.
   **   ~~~   ** Demand-to-Supply interface energy check value iteration history trace: 1256.597139,1256.597139,1256.597139,1256.597139,1256.597139,1256.597139,1256.597138,1256.597138,1256.597138,1256.597138,
   **   ~~~   ** Supply-to-demand interface deck 1 energy check value iteration history trace: 2296.597601,2296.597601,2296.597601,2296.597601,2296.597601,2296.597600,2296.597600,2296.597600,2296.597600,2296.597600,
   ** Warning ** SimHVAC: Maximum iterations (20) exceeded for all HVAC loops, at ANNUAL, 04/13 11:45 - 12:00
   **   ~~~   ** The solution for one or more of the Air Loop HVAC systems did not appear to converge
   **   ~~~   ** Air System Named = CENTRAL SYSTEM did not converge for mass flow rate
   **   ~~~   ** Check values should be zero. Most Recent values listed first.
   **   ~~~   ** Demand-to-Supply interface mass flow rate check value iteration history trace: 5.590321E-002,5.590321E-002,5.590321E-002,5.590321E-002,5.590321E-002,5.590321E-002,5.590321E-002,5.590321E-002,5.590321E-002,5.590321E-002,
   **   ~~~   ** Supply-to-demand interface deck 1 mass flow rate check value iteration history trace: 5.590321E-002,5.590321E-002,5.590321E-002,5.590321E-002,5.590321E-002,5.590321E-002,5.590321E-002,5.590321E-002,5.590321E-002,5.590321E-002,
   **   ~~~   ** Air System Named = CENTRAL SYSTEM did not converge for energy
   **   ~~~   ** Check values should be zero. Most Recent values listed first.
   **   ~~~   ** Demand-to-Supply interface energy check value iteration history trace: 1089.987549,1089.987549,1089.987549,1089.987549,1089.987549,1089.987549,1089.987549,1089.987549,1089.987549,1089.987549,
   **   ~~~   ** Supply-to-demand interface deck 1 energy check value iteration history trace: 2055.006751,2055.006751,2055.006751,2055.006751,2055.006751,2055.006751,2055.006751,2055.006751,2055.006751,2055.006750,
   ** Warning ** SimHVAC: Maximum iterations (20) exceeded for all HVAC loops, at ANNUAL, 04/21 08:40 - 08:42
   **   ~~~   ** The solution for one or more of the Air Loop HVAC systems did not appear to converge
   **   ~~~   ** Air System Named = CENTRAL SYSTEM did not converge for mass flow rate
   **   ~~~   ** Check values should be zero. Most Recent values listed first.
   **   ~~~   ** Demand-to-Supply interface mass flow rate check value iteration history trace: 4.544816E-002,4.544816E-002,4.544816E-002,4.544816E-002,4.544816E-002,4.544816E-002,4.544816E-002,4.544816E-002,4.544816E-002,4.544816E-002,
   **   ~~~   ** Supply-to-demand interface deck 1 mass flow rate check value iteration history trace: 4.544816E-002,4.544816E-002,4.544816E-002,4.544816E-002,4.544816E-002,4.544816E-002,4.544816E-002,4.544816E-002,4.544816E-002,4.544816E-002,
   **   ~~~   ** Air System Named = CENTRAL SYSTEM did not converge for energy
   **   ~~~   ** Check values should be zero. Most Recent values listed first.
   **   ~~~   ** Demand-to-Supply interface energy check value iteration history trace: 898.057342,898.057342,898.057342,898.057342,898.057342,898.057342,898.057342,898.057342,898.057342,898.057342,
   **   ~~~   ** Supply-to-demand interface deck 1 energy check value iteration history trace: 1838.581436,1838.581436,1838.581436,1838.581436,1838.581436,1838.581435,1838.581435,1838.581435,1838.581435,1838.581435,
   ** Warning ** SimHVAC: Maximum iterations (20) exceeded for all HVAC loops, at ANNUAL, 04/23 04:30 - 04:38
   **   ~~~   ** The solution for one or more of the Air Loop HVAC systems did not appear to converge
   **   ~~~   ** Air System Named = CENTRAL SYSTEM did not converge for mass flow rate
   **   ~~~   ** Check values should be zero. Most Recent values listed first.
   **   ~~~   ** Demand-to-Supply interface mass flow rate check value iteration history trace: 6.267282E-002,6.267282E-002,6.267282E-002,6.267282E-002,6.267282E-002,6.267282E-002,6.267282E-002,6.267282E-002,6.267282E-002,6.267282E-002,
   **   ~~~   ** Supply-to-demand interface deck 1 mass flow rate check value iteration history trace: 6.267282E-002,6.267282E-002,6.267282E-002,6.267282E-002,6.267282E-002,6.267282E-002,6.267282E-002,6.267282E-002,6.267282E-002,6.267282E-002,
   **   ~~~   ** Air System Named = CENTRAL SYSTEM did not converge for energy
   **   ~~~   ** Check values should be zero. Most Recent values listed first.
   **   ~~~   ** Demand-to-Supply interface energy check value iteration history trace: 1172.782276,1172.782276,1172.782276,1172.782276,1172.782276,1172.782276,1172.782276,1172.782276,1172.782276,1172.782276,
   **   ~~~   ** Supply-to-demand interface deck 1 energy check value iteration history trace: 1930.317936,1930.317936,1930.317936,1930.317936,1930.317936,1930.317936,1930.317936,1930.317936,1930.317936,1930.317936,
   ************* Simulation Error Summary *************
   ** Warning ** The following Report Variables were requested but not generated -- check.rdd file
   **   ~~~   ** Either the IDF did not contain these elements, the variable name is misspelled,
   **   ~~~   ** or the requested variable is an advanced output which requires Output : Diagnostics, DisplayAdvancedReportVariables;
   ************* Key=*, VarName=BASEBOARD TOTAL HEATING ENERGY, Frequency=
   ************* Key=*, VarName=WATER HEATER NATURALGAS ENERGY, Frequency=
   ************* Key=*, VarName=COOLING COIL TOTAL HEATING ENERGY, Frequency=
   ************* There are 34 unused schedules in input.
   ************* There are 388 unused week schedules in input.
   ************* There are 397 unused day schedules in input.
   ************* Use Output:Diagnostics,DisplayUnusedSchedules; to see them.
   *************
   ************* ===== Recurring Error Summary =====
   ************* The following recurring error messages occurred.
   *************
   *************  ** Warning ** "TOTAL HOT WATER LOAD" - Target water temperature should be less than or equal to the hot water temperature error continues...
   *************  **   ~~~   **   This error occurred 138975 total times;
   *************  **   ~~~   **   during Warmup 0 times;
   *************  **   ~~~   **   during Sizing 0 times.
   *************  **   ~~~   **   Max=9.811175  Min=1.085195E-003
   *************
   *************  ** Warning ** Temperature out of range [-100. to 200.] (PsyPsatFnTemp)
   *************  **   ~~~   **   This error occurred 4 total times;
   *************  **   ~~~   **   during Warmup 0 times;
   *************  **   ~~~   **   during Sizing 0 times.
   *************  **   ~~~   **   Max=-158.59465 C  Min=-383.44754 C
   *************
   *************  ** Warning ** SimHVAC: Exceeding Maximum iterations for all HVAC loops, during ANNUAL continues
   *************  **   ~~~   **   This error occurred 15 total times;
   *************  **   ~~~   **   during Warmup 0 times;
   *************  **   ~~~   **   during Sizing 0 times.
   *************
   *************
   ************* ===== Final Error Summary =====
   ************* The following error categories occurred.  Consider correcting or noting.
   ************* Loads Initialization did not Converge
   ************* ..1) very high thermal mass such as very thick concrete (solution: increase max number of warmup
   ************* ..   days in the BUILDING object);
   ************* ..2) moderate mass and inadequate space conditioning such that the building keeps getting warmer
   ************* ..   and warmer on successive days (solution: add HVAC, check building thermal properties,
   ************* ..   check if infiltration is included, make sure HVAC properly controlled);
   ************* ..3) a soil layer modeled below the concrete slab - (solution remove this layer and read about
   ************* ..   ground temperatures in the Auxiliary Programs document).
   ************* ..4) unreasonable (too small) limits in the BUILDING object for temperature (.4 default) or
   ************* ..   loads tolerances (.04 default)
   ************* Nominally Unused Constructions
   ************* ..The nominally unused constructions warning is provided to alert you to potential conditions that can cause
   ************* ..extra time during simulation. Each construction is calculated by the algorithm indicated in the HeatBalanceAlgorithm
   ************* ..object. You may remove the constructions indicated (when you use the DisplayExtraWarnings option).
   *************
   ************* EnergyPlus Warmup Error Summary. During Warmup: 1 Warning; 2 Severe Errors.
   ************* EnergyPlus Sizing Error Summary. During Sizing: 4 Warning; 0 Severe Errors.
   ************* EnergyPlus Completed Successfully-- 139026 Warning; 2 Severe Errors; Elapsed Time=00hr 01min 59.90sec
