Program Version,EnergyPlus, Version 22.2.0-c249759bad, YMD=2023.09.01 18:57,
   ************* Beginning Zone Sizing Calculations
   ** Warning ** ProcessScheduleInput: Schedule:Constant="ALWAYS ON DISCRETE", Schedule Type Limits Name="ONOFF" not found -- will not be validated
   ** Warning ** Foundation:Kiva="KIVA FOUNDATION", no Interior Horizontal Insulation Material Name defined
   **   ~~~   ** Interior Horizontal Insulation Depth will not be used.
   ** Warning ** CheckUsedConstructions: There are 15 nominally unused constructions in input.
   **   ~~~   ** Each Unused construction is shown.
   ************* Construction=INTERIOR FLOOR
   ************* Construction=INTERIOR WINDOW
   ************* Construction=EXTERIOR DOOR
   ************* Construction=INTERIOR DOOR
   ************* Construction=GABLE CONSTRUCTION
   ************* Construction=CRAWL_FLOOR
   ************* Construction=INSULATED PIPE
   ************* Construction=PLAIN PIPE
   ************* Construction=TDD PIPE
   ************* Construction=TDD DOME
   ************* Construction=TDD DIFFUSER
   ************* Construction=CRAWL WALL
   ************* Construction=CEILING-FLOOR-LAYER
   ************* Construction=SLAB CONSTRUCTION W FULL R10 INSULATION
   ************* Construction=SLAB CONSTRUCTION W FULL R5 INSULATION
   ** Warning ** GetDXCoils: Coil:Heating:DX:SingleSpeed="DX_HEATING_COIL" curve values
   **   ~~~   ** ... Defrost Energy Input Ratio Function of Temperature Curve Name = DEFROSTEIR output is not equal to 1.0 (+ or - 10%) at rated conditions.
   **   ~~~   ** ... Curve output at rated conditions = 0.152
   ************* Beginning System Sizing Calculations
   ************* Beginning Plant Sizing Calculations
   ** Warning ** SizeDXCoil Coil:Cooling:DX:SingleSpeed DX_COOLING_COIL
   **   ~~~   ** ...Gross Rated Total Cooling Capacity [W] will be limited by the maximum rated volume flow per rated total capacity ratio.
   **   ~~~   ** ...DX coil volume flow rate ( m3/s ) = 0.417756
   **   ~~~   ** ...Requested capacity ( W ) = 6408.965
   **   ~~~   ** ...Requested flow/capacity ratio ( m3/s/W ) = 6.518E-005
   **   ~~~   ** ...Maximum flow/capacity ratio ( m3/s/W ) = 6.041E-005
   **   ~~~   ** ...Adjusted capacity ( W ) = 6915.360
   ** Warning ** SizeDXCoil Coil:Heating:DX:SingleSpeed DX_HEATING_COIL
   **   ~~~   ** ...Gross Rated Heating Capacity [W] will be limited by the maximum rated volume flow per rated total capacity ratio.
   **   ~~~   ** ...DX coil volume flow rate ( m3/s ) = 0.417756
   **   ~~~   ** ...Requested capacity ( W ) = 6915.360
   **   ~~~   ** ...Requested flow/capacity ratio ( m3/s/W ) = 6.041E-005
   **   ~~~   ** ...Maximum flow/capacity ratio ( m3/s/W ) = 6.041E-005
   **   ~~~   ** ...Adjusted capacity ( W ) = 6915.360
   ** Warning ** Coil:WaterHeating:AirToWaterHeatPump:Wrapped "HEAT PUMP WATER HEATER EVAPORATOR": Rated air volume flow rate per watt of rated total water heating capacity is out of range
   **   ~~~   ** Min Rated Vol Flow Per Watt=[4.027E-005], Rated Vol Flow Per Watt=[1.510E-004], Max Rated Vol Flow Per Watt=[8.056E-005]. See Input-Output Reference Manual for valid range.
   ************* SizeFan: : Potential issue with equipment sizing for Fan:OnOff HEAT PUMP WATER HEATER FAN
   **   ~~~   ** User-Specified Maximum Flow Rate [m3/s] = 0.22653
   **   ~~~   ** differs from Design Size Maximum Flow Rate [m3/s] = 7.55250E-002
   **   ~~~   ** This may, or may not, indicate mismatched component sizes.
   **   ~~~   ** Verify that the value entered is intended and is consistent with other components.
   ** Warning ** Water heater = WATER HEATER TANK:  Recovery Efficiency and Energy Factor could not be calculated during the test for standard ratings
   **   ~~~   ** Setpoint was never recovered and/or heater never turned on
   ** Warning ** Check input. Pump nominal power or motor efficiency is set to 0, for pump=MAINS PRESSURE
   ** Warning ** Output:Meter: invalid Key Name="ELECTRIC_RANGE:INTERIOREQUIPMENT:ELECTRICITY" - not found.
   ** Warning ** Output:Meter: invalid Key Name="ELECTRIC_DRYER:INTERIOREQUIPMENT:ELECTRICITY" - not found.
   ** Warning ** Output:Meter: invalid Key Name="HEATRECOVERY:ELECTRICITY" - not found.
   ** Warning ** Output:Meter: invalid Key Name="HEATING:NATURALGAS" - not found.
   ** Warning ** Output:Meter: invalid Key Name="WATERSYSTEMS:NATURALGAS" - not found.
   ** Warning ** Output:Meter: invalid Key Name="PROPANE:FACILITY" - not found.
   ** Warning ** Output:Meter: invalid Key Name="HEATING:PROPANE" - not found.
   ************* Testing Individual Branch Integrity
   ************* All Branches passed integrity testing
   ************* Testing Individual Supply Air Path Integrity
   ************* All Supply Air Paths passed integrity testing
   ************* Testing Individual Return Air Path Integrity
   ************* All Return Air Paths passed integrity testing
   ************* No node connection errors were found.
   ************* Beginning Simulation
   ** Warning ** AirflowNetwork::Solver::validate_distribution: Heat pump water heater is simulated along with an AirflowNetwork but is not included in the AirflowNetwork.
   ** Warning ** CalcEquipmentFlowRates: "TOTAL HOT WATER LOAD" - Target water temperature is greater than the hot water temperature by (1.05 C)
   **   ~~~   **  Environment=EXTREME_WINTER, at Simulation time=01/20 03:45 - 04:00
   **   ~~~   ** ...target water temperature     = 53.33 C
   **   ~~~   ** ...hot water temperature        = 52.28 C
   **   ~~~   ** ...Target water temperature should be less than or equal to the hot water temperature. Verify temperature setpoints and schedules.
   ** Warning ** SimHVAC: Maximum iterations (20) exceeded for all HVAC loops, at EXTREME_WINTER, 01/25 12:00 - 12:15
   **   ~~~   ** The solution for one or more of the Air Loop HVAC systems did not appear to converge
   **   ~~~   ** Air System Named = CENTRAL SYSTEM did not converge for mass flow rate
   **   ~~~   ** Check values should be zero. Most Recent values listed first.
   **   ~~~   ** Demand-to-Supply interface mass flow rate check value iteration history trace: 2.298679E-002,2.298679E-002,2.298679E-002,2.298679E-002,2.298679E-002,2.298679E-002,2.298679E-002,2.298679E-002,2.298679E-002,2.298679E-002,
   **   ~~~   ** Supply-to-demand interface deck 1 mass flow rate check value iteration history trace: 2.298679E-002,2.298679E-002,2.298679E-002,2.298679E-002,2.298679E-002,2.298679E-002,2.298679E-002,2.298679E-002,2.298679E-002,2.298679E-002,
   **   ~~~   ** Air System Named = CENTRAL SYSTEM did not converge for energy
   **   ~~~   ** Check values should be zero. Most Recent values listed first.
   **   ~~~   ** Demand-to-Supply interface energy check value iteration history trace: 455.532961,455.532961,455.532961,455.532961,455.532961,455.532961,455.532961,455.532961,455.532961,455.532961,
   **   ~~~   ** Supply-to-demand interface deck 1 energy check value iteration history trace: 689.358564,689.358564,689.358564,689.358564,689.358564,689.358564,689.358564,689.358564,689.358564,689.358564,
   ** Warning ** SimHVAC: Maximum iterations (20) exceeded for all HVAC loops, at EXTREME_SUMMER, 07/17 01:45 - 02:00
   **   ~~~   ** The solution for one or more of the Air Loop HVAC systems did not appear to converge
   **   ~~~   ** Air System Named = CENTRAL SYSTEM did not converge for mass flow rate
   **   ~~~   ** Check values should be zero. Most Recent values listed first.
   **   ~~~   ** Demand-to-Supply interface mass flow rate check value iteration history trace: 0.116213,0.116213,0.116213,0.116213,0.116213,0.116213,0.116213,0.116213,0.116213,0.116213,
   **   ~~~   ** Supply-to-demand interface deck 1 mass flow rate check value iteration history trace: 0.116213,0.116213,0.116213,0.116213,0.116213,0.116213,0.116213,0.116213,0.116213,0.116213,
   **   ~~~   ** Air System Named = CENTRAL SYSTEM did not converge for energy
   **   ~~~   ** Check values should be zero. Most Recent values listed first.
   **   ~~~   ** Demand-to-Supply interface energy check value iteration history trace: 2924.772307,2924.772308,2924.772309,2924.772310,2924.772311,2924.772312,2924.772313,2924.772314,2924.772315,2924.772316,
   **   ~~~   ** Supply-to-demand interface deck 1 energy check value iteration history trace: 1459.491288,1459.491288,1459.491289,1459.491289,1459.491290,1459.491290,1459.491291,1459.491291,1459.491292,1459.491292,
   ** Warning ** SimHVAC: Maximum iterations (20) exceeded for all HVAC loops, at ANNUAL, 01/23 22:45 - 23:00
   **   ~~~   ** The solution for one or more of the Air Loop HVAC systems did not appear to converge
   **   ~~~   ** Air System Named = CENTRAL SYSTEM did not converge for mass flow rate
   **   ~~~   ** Check values should be zero. Most Recent values listed first.
   **   ~~~   ** Demand-to-Supply interface mass flow rate check value iteration history trace: 9.266431E-002,9.266431E-002,9.266431E-002,9.266431E-002,9.266431E-002,9.266431E-002,9.266431E-002,9.266431E-002,9.266431E-002,9.266431E-002,
   **   ~~~   ** Supply-to-demand interface deck 1 mass flow rate check value iteration history trace: 9.266431E-002,9.266431E-002,9.266431E-002,9.266431E-002,9.266431E-002,9.266431E-002,9.266431E-002,9.266431E-002,9.266431E-002,9.266431E-002,
   **   ~~~   ** Air System Named = CENTRAL SYSTEM did not converge for energy
   **   ~~~   ** Check values should be zero. Most Recent values listed first.
   **   ~~~   ** Demand-to-Supply interface energy check value iteration history trace: 1759.191949,1759.191949,1759.191949,1759.191948,1759.191948,1759.191948,1759.191948,1759.191948,1759.191948,1759.191948,
   **   ~~~   ** Supply-to-demand interface deck 1 energy check value iteration history trace: 2661.781564,2661.781564,2661.781564,2661.781563,2661.781563,2661.781563,2661.781563,2661.781563,2661.781562,2661.781562,
   ** Warning ** SimHVAC: Maximum iterations (20) exceeded for all HVAC loops, at ANNUAL, 01/28 10:00 - 10:15
   **   ~~~   ** The solution for one or more of the Air Loop HVAC systems did not appear to converge
   **   ~~~   ** Air System Named = CENTRAL SYSTEM did not converge for mass flow rate
   **   ~~~   ** Check values should be zero. Most Recent values listed first.
   **   ~~~   ** Demand-to-Supply interface mass flow rate check value iteration history trace: 8.986106E-002,8.986106E-002,8.986106E-002,8.986106E-002,8.986106E-002,8.986106E-002,8.986106E-002,8.986106E-002,8.986106E-002,8.986106E-002,
   **   ~~~   ** Supply-to-demand interface deck 1 mass flow rate check value iteration history trace: 8.986106E-002,8.986106E-002,8.986106E-002,8.986106E-002,8.986106E-002,8.986106E-002,8.986106E-002,8.986106E-002,8.986106E-002,8.986106E-002,
   **   ~~~   ** Air System Named = CENTRAL SYSTEM did not converge for energy
   **   ~~~   ** Check values should be zero. Most Recent values listed first.
   **   ~~~   ** Demand-to-Supply interface energy check value iteration history trace: 1780.758898,1780.758897,1780.758897,1780.758897,1780.758897,1780.758897,1780.758897,1780.758897,1780.758897,1780.758897,
   **   ~~~   ** Supply-to-demand interface deck 1 energy check value iteration history trace: 2767.989526,2767.989526,2767.989525,2767.989525,2767.989525,2767.989525,2767.989525,2767.989525,2767.989524,2767.989524,
   ** Warning ** SimHVAC: Maximum iterations (20) exceeded for all HVAC loops, at ANNUAL, 02/05 14:00 - 14:05
   **   ~~~   ** The solution for one or more of the Air Loop HVAC systems did not appear to converge
   **   ~~~   ** Air System Named = CENTRAL SYSTEM did not converge for mass flow rate
   **   ~~~   ** Check values should be zero. Most Recent values listed first.
   **   ~~~   ** Demand-to-Supply interface mass flow rate check value iteration history trace: 5.987574E-002,5.987574E-002,5.987574E-002,5.987574E-002,5.987574E-002,5.987574E-002,5.987574E-002,5.987574E-002,5.987574E-002,5.987574E-002,
   **   ~~~   ** Supply-to-demand interface deck 1 mass flow rate check value iteration history trace: 5.987574E-002,5.987574E-002,5.987574E-002,5.987574E-002,5.987574E-002,5.987574E-002,5.987574E-002,5.987574E-002,5.987574E-002,5.987574E-002,
   **   ~~~   ** Air System Named = CENTRAL SYSTEM did not converge for energy
   **   ~~~   ** Check values should be zero. Most Recent values listed first.
   **   ~~~   ** Demand-to-Supply interface energy check value iteration history trace: 1185.508759,1185.508758,1185.508758,1185.508758,1185.508758,1185.508758,1185.508758,1185.508758,1185.508758,1185.508758,
   **   ~~~   ** Supply-to-demand interface deck 1 energy check value iteration history trace: 2086.731776,2086.731776,2086.731776,2086.731776,2086.731776,2086.731775,2086.731775,2086.731775,2086.731775,2086.731775,
   ** Warning ** SimHVAC: Maximum iterations (20) exceeded for all HVAC loops, at ANNUAL, 02/09 02:45 - 03:00
   **   ~~~   ** The solution for one or more of the Air Loop HVAC systems did not appear to converge
   **   ~~~   ** Air System Named = CENTRAL SYSTEM did not converge for mass flow rate
   **   ~~~   ** Check values should be zero. Most Recent values listed first.
   **   ~~~   ** Demand-to-Supply interface mass flow rate check value iteration history trace: 5.990910E-002,5.990910E-002,5.990910E-002,5.990910E-002,5.990910E-002,5.990910E-002,5.990910E-002,5.990910E-002,5.990910E-002,5.990910E-002,
   **   ~~~   ** Supply-to-demand interface deck 1 mass flow rate check value iteration history trace: 5.990910E-002,5.990910E-002,5.990910E-002,5.990910E-002,5.990910E-002,5.990910E-002,5.990910E-002,5.990910E-002,5.990910E-002,5.990910E-002,
   **   ~~~   ** Air System Named = CENTRAL SYSTEM did not converge for energy
   **   ~~~   ** Check values should be zero. Most Recent values listed first.
   **   ~~~   ** Demand-to-Supply interface energy check value iteration history trace: 1120.128841,1120.128841,1120.128841,1120.128841,1120.128841,1120.128841,1120.128841,1120.128841,1120.128841,1120.128841,
   **   ~~~   ** Supply-to-demand interface deck 1 energy check value iteration history trace: 1939.345811,1939.345811,1939.345811,1939.345811,1939.345811,1939.345811,1939.345811,1939.345811,1939.345811,1939.345811,
   ** Warning ** SimHVAC: Maximum iterations (20) exceeded for all HVAC loops, at ANNUAL, 02/25 10:54 - 10:56
   **   ~~~   ** The solution for one or more of the Air Loop HVAC systems did not appear to converge
   **   ~~~   ** Air System Named = CENTRAL SYSTEM did not converge for mass flow rate
   **   ~~~   ** Check values should be zero. Most Recent values listed first.
   **   ~~~   ** Demand-to-Supply interface mass flow rate check value iteration history trace: 6.333508E-002,6.333508E-002,6.333508E-002,6.333508E-002,6.333508E-002,6.333508E-002,6.333508E-002,6.333508E-002,6.333508E-002,6.333508E-002,
   **   ~~~   ** Supply-to-demand interface deck 1 mass flow rate check value iteration history trace: 6.333508E-002,6.333508E-002,6.333508E-002,6.333508E-002,6.333508E-002,6.333508E-002,6.333508E-002,6.333508E-002,6.333508E-002,6.333508E-002,
   **   ~~~   ** Air System Named = CENTRAL SYSTEM did not converge for energy
   **   ~~~   ** Check values should be zero. Most Recent values listed first.
   **   ~~~   ** Demand-to-Supply interface energy check value iteration history trace: 1251.475527,1251.475527,1251.475527,1251.475527,1251.475527,1251.475527,1251.475527,1251.475527,1251.475526,1251.475526,
   **   ~~~   ** Supply-to-demand interface deck 1 energy check value iteration history trace: 2163.871843,2163.871843,2163.871843,2163.871843,2163.871843,2163.871843,2163.871842,2163.871842,2163.871842,2163.871842,
   ** Warning ** SimHVAC: Maximum iterations (20) exceeded for all HVAC loops, at ANNUAL, 03/09 01:38 - 01:45
   **   ~~~   ** The solution for one or more of the Air Loop HVAC systems did not appear to converge
   **   ~~~   ** Air System Named = CENTRAL SYSTEM did not converge for mass flow rate
   **   ~~~   ** Check values should be zero. Most Recent values listed first.
   **   ~~~   ** Demand-to-Supply interface mass flow rate check value iteration history trace: 2.773854E-002,2.773854E-002,2.773854E-002,2.773854E-002,2.773854E-002,2.773854E-002,2.773854E-002,2.773854E-002,2.773854E-002,2.773854E-002,
   **   ~~~   ** Supply-to-demand interface deck 1 mass flow rate check value iteration history trace: 2.773854E-002,2.773854E-002,2.773854E-002,2.773854E-002,2.773854E-002,2.773854E-002,2.773854E-002,2.773854E-002,2.773854E-002,2.773854E-002,
   **   ~~~   ** Air System Named = CENTRAL SYSTEM did not converge for energy
   **   ~~~   ** Check values should be zero. Most Recent values listed first.
   **   ~~~   ** Demand-to-Supply interface energy check value iteration history trace: 514.688687,514.688687,514.688687,514.688687,514.688687,514.688687,514.688687,514.688687,514.688687,514.688687,
   **   ~~~   ** Supply-to-demand interface deck 1 energy check value iteration history trace: 940.029865,940.029865,940.029865,940.029865,940.029865,940.029865,940.029865,940.029865,940.029865,940.029865,
   ** Warning ** SimHVAC: Maximum iterations (20) exceeded for all HVAC loops, at ANNUAL, 03/09 08:15 - 08:20
   **   ~~~   ** The solution for one or more of the Air Loop HVAC systems did not appear to converge
   **   ~~~   ** Air System Named = CENTRAL SYSTEM did not converge for mass flow rate
   **   ~~~   ** Check values should be zero. Most Recent values listed first.
   **   ~~~   ** Demand-to-Supply interface mass flow rate check value iteration history trace: 4.871041E-002,4.871041E-002,4.871041E-002,4.871041E-002,4.871041E-002,4.871041E-002,4.871041E-002,4.871041E-002,4.871041E-002,4.871041E-002,
   **   ~~~   ** Supply-to-demand interface deck 1 mass flow rate check value iteration history trace: 4.871041E-002,4.871041E-002,4.871041E-002,4.871041E-002,4.871041E-002,4.871041E-002,4.871041E-002,4.871041E-002,4.871041E-002,4.871041E-002,
   **   ~~~   ** Air System Named = CENTRAL SYSTEM did not converge for energy
   **   ~~~   ** Check values should be zero. Most Recent values listed first.
   **   ~~~   ** Demand-to-Supply interface energy check value iteration history trace: 965.236762,965.236761,965.236761,965.236761,965.236761,965.236761,965.236761,965.236760,965.236760,965.236760,
   **   ~~~   ** Supply-to-demand interface deck 1 energy check value iteration history trace: 1746.716497,1746.716497,1746.716497,1746.716496,1746.716496,1746.716496,1746.716495,1746.716495,1746.716495,1746.716495,
   **   ~~~   ** Node named ZONE INLET NODE shows oscillating temperatures across iterations with a repeated value of 35.686342
   **   ~~~   ** Node named ZONE INLET NODE temperature [C] iteration history trace (most recent first): 35.686342,35.686341,35.686341,35.686341,35.686341,35.686340,35.686340,35.686340,35.686340,35.686339,
   ** Warning ** SimHVAC: Maximum iterations (20) exceeded for all HVAC loops, at ANNUAL, 03/27 08:10 - 08:15
   **   ~~~   ** The solution for one or more of the Air Loop HVAC systems did not appear to converge
   **   ~~~   ** Air System Named = CENTRAL SYSTEM did not converge for mass flow rate
   **   ~~~   ** Check values should be zero. Most Recent values listed first.
   **   ~~~   ** Demand-to-Supply interface mass flow rate check value iteration history trace: 5.948304E-002,5.948304E-002,5.948304E-002,5.948304E-002,5.948304E-002,5.948304E-002,5.948304E-002,5.948304E-002,5.948304E-002,5.948304E-002,
   **   ~~~   ** Supply-to-demand interface deck 1 mass flow rate check value iteration history trace: 5.948304E-002,5.948304E-002,5.948304E-002,5.948304E-002,5.948304E-002,5.948304E-002,5.948304E-002,5.948304E-002,5.948304E-002,5.948304E-002,
   **   ~~~   ** Air System Named = CENTRAL SYSTEM did not converge for energy
   **   ~~~   ** Check values should be zero. Most Recent values listed first.
   **   ~~~   ** Demand-to-Supply interface energy check value iteration history trace: 1178.737009,1178.737008,1178.737008,1178.737008,1178.737008,1178.737008,1178.737008,1178.737008,1178.737008,1178.737008,
   **   ~~~   ** Supply-to-demand interface deck 1 energy check value iteration history trace: 2015.792827,2015.792827,2015.792826,2015.792826,2015.792826,2015.792826,2015.792826,2015.792826,2015.792826,2015.792826,
   ** Warning ** SimHVAC: Maximum iterations (20) exceeded for all HVAC loops, at ANNUAL, 04/01 02:30 - 02:45
   **   ~~~   ** The solution for one or more of the Air Loop HVAC systems did not appear to converge
   **   ~~~   ** Air System Named = CENTRAL SYSTEM did not converge for mass flow rate
   **   ~~~   ** Check values should be zero. Most Recent values listed first.
   **   ~~~   ** Demand-to-Supply interface mass flow rate check value iteration history trace: 4.509715E-002,4.509715E-002,4.509715E-002,4.509715E-002,4.509715E-002,4.509715E-002,4.509715E-002,4.509715E-002,4.509715E-002,4.509715E-002,
   **   ~~~   ** Supply-to-demand interface deck 1 mass flow rate check value iteration history trace: 4.509715E-002,4.509715E-002,4.509715E-002,4.509715E-002,4.509715E-002,4.509715E-002,4.509715E-002,4.509715E-002,4.509715E-002,4.509715E-002,
   **   ~~~   ** Air System Named = CENTRAL SYSTEM did not converge for energy
   **   ~~~   ** Check values should be zero. Most Recent values listed first.
   **   ~~~   ** Demand-to-Supply interface energy check value iteration history trace: 842.815309,842.815309,842.815309,842.815309,842.815309,842.815309,842.815309,842.815309,842.815309,842.815309,
   **   ~~~   ** Supply-to-demand interface deck 1 energy check value iteration history trace: 1619.269070,1619.269070,1619.269070,1619.269070,1619.269070,1619.269070,1619.269070,1619.269069,1619.269069,1619.269069,
   ** Warning ** SimHVAC: Maximum iterations (20) exceeded for all HVAC loops, at ANNUAL, 10/19 08:00 - 08:04
   **   ~~~   ** The solution for one or more of the Air Loop HVAC systems did not appear to converge
   **   ~~~   ** Air System Named = CENTRAL SYSTEM did not converge for mass flow rate
   **   ~~~   ** Check values should be zero. Most Recent values listed first.
   **   ~~~   ** Demand-to-Supply interface mass flow rate check value iteration history trace: 6.866525E-002,6.866525E-002,6.866525E-002,6.866525E-002,6.866525E-002,6.866525E-002,6.866525E-002,6.866525E-002,6.866525E-002,6.866525E-002,
   **   ~~~   ** Supply-to-demand interface deck 1 mass flow rate check value iteration history trace: 6.866525E-002,6.866525E-002,6.866525E-002,6.866525E-002,6.866525E-002,6.866525E-002,6.866525E-002,6.866525E-002,6.866525E-002,6.866525E-002,
   **   ~~~   ** Air System Named = CENTRAL SYSTEM did not converge for energy
   **   ~~~   ** Check values should be zero. Most Recent values listed first.
   **   ~~~   ** Demand-to-Supply interface energy check value iteration history trace: 1353.328600,1353.328600,1353.328600,1353.328600,1353.328599,1353.328599,1353.328599,1353.328599,1353.328599,1353.328599,
   **   ~~~   ** Supply-to-demand interface deck 1 energy check value iteration history trace: 2293.325931,2293.325931,2293.325930,2293.325930,2293.325930,2293.325930,2293.325930,2293.325930,2293.325930,2293.325930,
   ** Warning ** SimHVAC: Maximum iterations (20) exceeded for all HVAC loops, at ANNUAL, 10/30 06:15 - 06:30
   **   ~~~   ** The solution for one or more of the Air Loop HVAC systems did not appear to converge
   **   ~~~   ** Air System Named = CENTRAL SYSTEM did not converge for mass flow rate
   **   ~~~   ** Check values should be zero. Most Recent values listed first.
   **   ~~~   ** Demand-to-Supply interface mass flow rate check value iteration history trace: 6.505628E-002,6.505628E-002,6.505628E-002,6.505628E-002,6.505628E-002,6.505628E-002,6.505628E-002,6.505628E-002,6.505628E-002,6.505628E-002,
   **   ~~~   ** Supply-to-demand interface deck 1 mass flow rate check value iteration history trace: 6.505628E-002,6.505628E-002,6.505628E-002,6.505628E-002,6.505628E-002,6.505628E-002,6.505628E-002,6.505628E-002,6.505628E-002,6.505628E-002,
   **   ~~~   ** Air System Named = CENTRAL SYSTEM did not converge for energy
   **   ~~~   ** Check values should be zero. Most Recent values listed first.
   **   ~~~   ** Demand-to-Supply interface energy check value iteration history trace: 1274.630107,1274.630107,1274.630107,1274.630107,1274.630107,1274.630107,1274.630107,1274.630107,1274.630107,1274.630107,
   **   ~~~   ** Supply-to-demand interface deck 1 energy check value iteration history trace: 2205.328098,2205.328098,2205.328098,2205.328098,2205.328098,2205.328098,2205.328098,2205.328098,2205.328097,2205.328097,
   ** Warning ** SimHVAC: Maximum iterations (20) exceeded for all HVAC loops, at ANNUAL, 10/31 20:00 - 20:15
   **   ~~~   ** The solution for one or more of the Air Loop HVAC systems did not appear to converge
   **   ~~~   ** Air System Named = CENTRAL SYSTEM did not converge for mass flow rate
   **   ~~~   ** Check values should be zero. Most Recent values listed first.
   **   ~~~   ** Demand-to-Supply interface mass flow rate check value iteration history trace: 0.123882,0.123882,0.123882,0.123882,0.123882,0.123882,0.123882,0.123882,0.123882,0.123882,
   **   ~~~   ** Supply-to-demand interface deck 1 mass flow rate check value iteration history trace: 0.123882,0.123882,0.123882,0.123882,0.123882,0.123882,0.123882,0.123882,0.123882,0.123882,
   **   ~~~   ** Air System Named = CENTRAL SYSTEM did not converge for energy
   **   ~~~   ** Check values should be zero. Most Recent values listed first.
   **   ~~~   ** Demand-to-Supply interface energy check value iteration history trace: 2986.808952,2986.808952,2986.808953,2986.808953,2986.808954,2986.808954,2986.808955,2986.808955,2986.808955,2986.808956,
   **   ~~~   ** Supply-to-demand interface deck 1 energy check value iteration history trace: 1358.047595,1358.047595,1358.047596,1358.047596,1358.047596,1358.047596,1358.047596,1358.047597,1358.047597,1358.047597,
   ************* Simulation Error Summary *************
   ** Warning ** The following Report Variables were requested but not generated -- check.rdd file
   **   ~~~   ** Either the IDF did not contain these elements, the variable name is misspelled,
   **   ~~~   ** or the requested variable is an advanced output which requires Output : Diagnostics, DisplayAdvancedReportVariables;
   ************* Key=*, VarName=BASEBOARD TOTAL HEATING ENERGY, Frequency=
   ************* Key=*, VarName=WATER HEATER NATURALGAS ENERGY, Frequency=
   ************* Key=*, VarName=COOLING COIL TOTAL HEATING ENERGY, Frequency=
   ************* There are 34 unused schedules in input.
   ************* There are 388 unused week schedules in input.
   ************* There are 396 unused day schedules in input.
   ************* Use Output:Diagnostics,DisplayUnusedSchedules; to see them.
   *************
   ************* ===== Recurring Error Summary =====
   ************* The following recurring error messages occurred.
   *************
   *************  ** Warning ** "TOTAL HOT WATER LOAD" - Target water temperature should be less than or equal to the hot water temperature error continues...
   *************  **   ~~~   **   This error occurred 65801 total times;
   *************  **   ~~~   **   during Warmup 0 times;
   *************  **   ~~~   **   during Sizing 0 times.
   *************  **   ~~~   **   Max=6.77425  Min=1.702119E-004
   *************
   *************  ** Warning ** SimHVAC: Exceeding Maximum iterations for all HVAC loops, during ANNUAL continues
   *************  **   ~~~   **   This error occurred 1 total times;
   *************  **   ~~~   **   during Warmup 0 times;
   *************  **   ~~~   **   during Sizing 0 times.
   *************
   *************
   ************* ===== Final Error Summary =====
   ************* The following error categories occurred.  Consider correcting or noting.
   ************* Nominally Unused Constructions
   ************* ..The nominally unused constructions warning is provided to alert you to potential conditions that can cause
   ************* ..extra time during simulation. Each construction is calculated by the algorithm indicated in the HeatBalanceAlgorithm
   ************* ..object. You may remove the constructions indicated (when you use the DisplayExtraWarnings option).
   *************
   ************* EnergyPlus Warmup Error Summary. During Warmup: 1 Warning; 0 Severe Errors.
   ************* EnergyPlus Sizing Error Summary. During Sizing: 4 Warning; 0 Severe Errors.
   ************* EnergyPlus Completed Successfully-- 65835 Warning; 0 Severe Errors; Elapsed Time=00hr 01min 36.44sec
