Program Version,EnergyPlus, Version 22.2.0-c249759bad, YMD=2023.09.01 14:56,
   ************* Beginning Zone Sizing Calculations
   ** Warning ** ProcessScheduleInput: Schedule:Constant="ALWAYS ON DISCRETE", Schedule Type Limits Name="ONOFF" not found -- will not be validated
   ** Warning ** Foundation:Kiva="KIVA FOUNDATION", no Interior Horizontal Insulation Material Name defined
   **   ~~~   ** Interior Horizontal Insulation Depth will not be used.
   ** Warning ** CheckUsedConstructions: There are 15 nominally unused constructions in input.
   **   ~~~   ** Each Unused construction is shown.
   ************* Construction=INTERIOR FLOOR
   ************* Construction=INTERIOR WINDOW
   ************* Construction=EXTERIOR DOOR
   ************* Construction=INTERIOR DOOR
   ************* Construction=GABLE CONSTRUCTION
   ************* Construction=CRAWL_FLOOR
   ************* Construction=INSULATED PIPE
   ************* Construction=PLAIN PIPE
   ************* Construction=TDD PIPE
   ************* Construction=TDD DOME
   ************* Construction=TDD DIFFUSER
   ************* Construction=CRAWL WALL
   ************* Construction=CEILING-FLOOR-LAYER
   ************* Construction=SLAB CONSTRUCTION W FULL R10 INSULATION
   ************* Construction=SLAB CONSTRUCTION W FULL R5 INSULATION
   ** Warning ** GetDXCoils: Coil:Heating:DX:SingleSpeed="DX_HEATING_COIL" curve values
   **   ~~~   ** ... Defrost Energy Input Ratio Function of Temperature Curve Name = DEFROSTEIR output is not equal to 1.0 (+ or - 10%) at rated conditions.
   **   ~~~   ** ... Curve output at rated conditions = 0.152
   ************* Beginning System Sizing Calculations
   ************* Beginning Plant Sizing Calculations
   ** Warning ** Coil:WaterHeating:AirToWaterHeatPump:Wrapped "HEAT PUMP WATER HEATER EVAPORATOR": Rated air volume flow rate per watt of rated total water heating capacity is out of range
   **   ~~~   ** Min Rated Vol Flow Per Watt=[4.027E-005], Rated Vol Flow Per Watt=[1.386E-004], Max Rated Vol Flow Per Watt=[8.056E-005]. See Input-Output Reference Manual for valid range.
   ** Warning ** Water heater = WATER HEATER TANK:  Recovery Efficiency and Energy Factor could not be calculated during the test for standard ratings
   **   ~~~   ** Setpoint was never recovered and/or heater never turned on
   ** Warning ** Check input. Pump nominal power or motor efficiency is set to 0, for pump=MAINS PRESSURE
   ** Warning ** Output:Meter: invalid Key Name="ELECTRIC_RANGE:INTERIOREQUIPMENT:ELECTRICITY" - not found.
   ** Warning ** Output:Meter: invalid Key Name="ELECTRIC_DRYER:INTERIOREQUIPMENT:ELECTRICITY" - not found.
   ** Warning ** Output:Meter: invalid Key Name="HEATRECOVERY:ELECTRICITY" - not found.
   ** Warning ** Output:Meter: invalid Key Name="HEATING:NATURALGAS" - not found.
   ** Warning ** Output:Meter: invalid Key Name="WATERSYSTEMS:NATURALGAS" - not found.
   ** Warning ** Output:Meter: invalid Key Name="PROPANE:FACILITY" - not found.
   ** Warning ** Output:Meter: invalid Key Name="HEATING:PROPANE" - not found.
   ************* Testing Individual Branch Integrity
   ************* All Branches passed integrity testing
   ************* Testing Individual Supply Air Path Integrity
   ************* All Supply Air Paths passed integrity testing
   ************* Testing Individual Return Air Path Integrity
   ************* All Return Air Paths passed integrity testing
   ************* No node connection errors were found.
   ************* Beginning Simulation
   ** Warning ** AirflowNetwork::Solver::validate_distribution: Heat pump water heater is simulated along with an AirflowNetwork but is not included in the AirflowNetwork.
   ** Warning ** CalcEquipmentFlowRates: "TOTAL HOT WATER LOAD" - Target water temperature is greater than the hot water temperature by (1.64 C)
   **   ~~~   **  Environment=EXTREME_WINTER, at Simulation time=01/27 06:00 - 06:15
   **   ~~~   ** ...target water temperature     = 53.33 C
   **   ~~~   ** ...hot water temperature        = 51.69 C
   **   ~~~   ** ...Target water temperature should be less than or equal to the hot water temperature. Verify temperature setpoints and schedules.
   ** Warning ** Temperature out of range [-100. to 200.] (PsyPsatFnTemp)
   **   ~~~   **  Routine=PsyTwbFnTdbWPb, Environment=ANNUAL, at Simulation time=02/14 12:00 - 12:03
   **   ~~~   **  Input Temperature=-323.73
   ** Warning ** SimHVAC: Maximum iterations (20) exceeded for all HVAC loops, at ANNUAL, 03/31 22:40 - 22:45
   **   ~~~   ** The solution for one or more of the Air Loop HVAC systems did not appear to converge
   **   ~~~   ** Air System Named = CENTRAL SYSTEM did not converge for mass flow rate
   **   ~~~   ** Check values should be zero. Most Recent values listed first.
   **   ~~~   ** Demand-to-Supply interface mass flow rate check value iteration history trace: 9.284082E-002,9.284082E-002,9.284082E-002,9.284082E-002,9.284082E-002,9.284082E-002,9.284082E-002,9.284082E-002,9.284082E-002,9.284082E-002,
   **   ~~~   ** Supply-to-demand interface deck 1 mass flow rate check value iteration history trace: 9.284082E-002,9.284082E-002,9.284082E-002,9.284082E-002,9.284082E-002,9.284082E-002,9.284082E-002,9.284082E-002,9.284082E-002,9.284082E-002,
   **   ~~~   ** Air System Named = CENTRAL SYSTEM did not converge for energy
   **   ~~~   ** Check values should be zero. Most Recent values listed first.
   **   ~~~   ** Demand-to-Supply interface energy check value iteration history trace: 1733.219770,1733.219770,1733.219770,1733.219770,1733.219769,1733.219769,1733.219769,1733.219769,1733.219769,1733.219769,
   **   ~~~   ** Supply-to-demand interface deck 1 energy check value iteration history trace: 2713.886656,2713.886656,2713.886656,2713.886655,2713.886655,2713.886655,2713.886655,2713.886655,2713.886655,2713.886654,
   ** Warning ** SimHVAC: Maximum iterations (20) exceeded for all HVAC loops, at ANNUAL, 04/13 06:30 - 06:33
   **   ~~~   ** The solution for one or more of the Air Loop HVAC systems did not appear to converge
   **   ~~~   ** Air System Named = CENTRAL SYSTEM did not converge for mass flow rate
   **   ~~~   ** Check values should be zero. Most Recent values listed first.
   **   ~~~   ** Demand-to-Supply interface mass flow rate check value iteration history trace: 8.174345E-002,8.174345E-002,8.174345E-002,8.174345E-002,8.174345E-002,8.174345E-002,8.174345E-002,8.174345E-002,8.174345E-002,8.174345E-002,
   **   ~~~   ** Supply-to-demand interface deck 1 mass flow rate check value iteration history trace: 8.174345E-002,8.174345E-002,8.174345E-002,8.174345E-002,8.174345E-002,8.174345E-002,8.174345E-002,8.174345E-002,8.174345E-002,8.174345E-002,
   **   ~~~   ** Air System Named = CENTRAL SYSTEM did not converge for energy
   **   ~~~   ** Check values should be zero. Most Recent values listed first.
   **   ~~~   ** Demand-to-Supply interface energy check value iteration history trace: 1619.805086,1619.805086,1619.805086,1619.805086,1619.805085,1619.805085,1619.805085,1619.805085,1619.805085,1619.805085,
   **   ~~~   ** Supply-to-demand interface deck 1 energy check value iteration history trace: 2776.177238,2776.177238,2776.177238,2776.177238,2776.177238,2776.177237,2776.177237,2776.177237,2776.177237,2776.177237,
   ** Warning ** SimHVAC: Maximum iterations (20) exceeded for all HVAC loops, at ANNUAL, 05/13 11:00 - 11:15
   **   ~~~   ** The solution for one or more of the Air Loop HVAC systems did not appear to converge
   **   ~~~   ** Air System Named = CENTRAL SYSTEM did not converge for mass flow rate
   **   ~~~   ** Check values should be zero. Most Recent values listed first.
   **   ~~~   ** Demand-to-Supply interface mass flow rate check value iteration history trace: 6.959615E-002,6.959615E-002,6.959615E-002,6.959615E-002,6.959615E-002,6.959615E-002,6.959615E-002,6.959615E-002,6.959615E-002,6.959615E-002,
   **   ~~~   ** Supply-to-demand interface deck 1 mass flow rate check value iteration history trace: 6.959615E-002,6.959615E-002,6.959615E-002,6.959615E-002,6.959615E-002,6.959615E-002,6.959615E-002,6.959615E-002,6.959615E-002,6.959615E-002,
   **   ~~~   ** Air System Named = CENTRAL SYSTEM did not converge for energy
   **   ~~~   ** Check values should be zero. Most Recent values listed first.
   **   ~~~   ** Demand-to-Supply interface energy check value iteration history trace: 1341.858131,1341.858131,1341.858131,1341.858131,1341.858131,1341.858131,1341.858131,1341.858131,1341.858130,1341.858130,
   **   ~~~   ** Supply-to-demand interface deck 1 energy check value iteration history trace: 2377.436913,2377.436913,2377.436913,2377.436912,2377.436912,2377.436912,2377.436912,2377.436912,2377.436912,2377.436912,
   ** Warning ** SimHVAC: Maximum iterations (20) exceeded for all HVAC loops, at ANNUAL, 06/14 06:00 - 06:15
   **   ~~~   ** The solution for one or more of the Air Loop HVAC systems did not appear to converge
   **   ~~~   ** Air System Named = CENTRAL SYSTEM did not converge for mass flow rate
   **   ~~~   ** Check values should be zero. Most Recent values listed first.
   **   ~~~   ** Demand-to-Supply interface mass flow rate check value iteration history trace: 5.970567E-002,5.970567E-002,5.970567E-002,5.970567E-002,5.970567E-002,5.970567E-002,5.970567E-002,5.970567E-002,5.970567E-002,5.970567E-002,
   **   ~~~   ** Supply-to-demand interface deck 1 mass flow rate check value iteration history trace: 5.970567E-002,5.970567E-002,5.970567E-002,5.970567E-002,5.970567E-002,5.970567E-002,5.970567E-002,5.970567E-002,5.970567E-002,5.970567E-002,
   **   ~~~   ** Air System Named = CENTRAL SYSTEM did not converge for energy
   **   ~~~   ** Check values should be zero. Most Recent values listed first.
   **   ~~~   ** Demand-to-Supply interface energy check value iteration history trace: 1183.441804,1183.441804,1183.441804,1183.441804,1183.441804,1183.441804,1183.441804,1183.441804,1183.441804,1183.441804,
   **   ~~~   ** Supply-to-demand interface deck 1 energy check value iteration history trace: 2096.237029,2096.237029,2096.237029,2096.237029,2096.237029,2096.237028,2096.237028,2096.237028,2096.237028,2096.237028,
   ** Warning ** SimHVAC: Maximum iterations (20) exceeded for all HVAC loops, at ANNUAL, 06/14 07:00 - 07:15
   **   ~~~   ** The solution for one or more of the Air Loop HVAC systems did not appear to converge
   **   ~~~   ** Air System Named = CENTRAL SYSTEM did not converge for mass flow rate
   **   ~~~   ** Check values should be zero. Most Recent values listed first.
   **   ~~~   ** Demand-to-Supply interface mass flow rate check value iteration history trace: 6.512314E-002,6.512314E-002,6.512314E-002,6.512314E-002,6.512314E-002,6.512314E-002,6.512314E-002,6.512314E-002,6.512314E-002,6.512314E-002,
   **   ~~~   ** Supply-to-demand interface deck 1 mass flow rate check value iteration history trace: 6.512314E-002,6.512314E-002,6.512314E-002,6.512314E-002,6.512314E-002,6.512314E-002,6.512314E-002,6.512314E-002,6.512314E-002,6.512314E-002,
   **   ~~~   ** Air System Named = CENTRAL SYSTEM did not converge for energy
   **   ~~~   ** Check values should be zero. Most Recent values listed first.
   **   ~~~   ** Demand-to-Supply interface energy check value iteration history trace: 1280.810897,1280.810897,1280.810897,1280.810896,1280.810896,1280.810896,1280.810896,1280.810896,1280.810896,1280.810896,
   **   ~~~   ** Supply-to-demand interface deck 1 energy check value iteration history trace: 2280.910146,2280.910146,2280.910146,2280.910146,2280.910146,2280.910146,2280.910146,2280.910145,2280.910145,2280.910145,
   ** Warning ** SimHVAC: Maximum iterations (20) exceeded for all HVAC loops, at ANNUAL, 10/06 15:15 - 15:30
   **   ~~~   ** The solution for one or more of the Air Loop HVAC systems did not appear to converge
   **   ~~~   ** Air System Named = CENTRAL SYSTEM did not converge for mass flow rate
   **   ~~~   ** Check values should be zero. Most Recent values listed first.
   **   ~~~   ** Demand-to-Supply interface mass flow rate check value iteration history trace: 5.333328E-002,5.333328E-002,5.333328E-002,5.333328E-002,5.333328E-002,5.333328E-002,5.333328E-002,5.333328E-002,5.333328E-002,5.333328E-002,
   **   ~~~   ** Supply-to-demand interface deck 1 mass flow rate check value iteration history trace: 5.333328E-002,5.333328E-002,5.333328E-002,5.333328E-002,5.333328E-002,5.333328E-002,5.333328E-002,5.333328E-002,5.333328E-002,5.333328E-002,
   **   ~~~   ** Air System Named = CENTRAL SYSTEM did not converge for energy
   **   ~~~   ** Check values should be zero. Most Recent values listed first.
   **   ~~~   ** Demand-to-Supply interface energy check value iteration history trace: 1047.181153,1047.181153,1047.181153,1047.181153,1047.181153,1047.181153,1047.181153,1047.181153,1047.181153,1047.181153,
   **   ~~~   ** Supply-to-demand interface deck 1 energy check value iteration history trace: 1887.801087,1887.801087,1887.801087,1887.801086,1887.801086,1887.801086,1887.801086,1887.801086,1887.801086,1887.801086,
   ** Warning ** SimHVAC: Maximum iterations (20) exceeded for all HVAC loops, at ANNUAL, 10/13 06:45 - 07:00
   **   ~~~   ** The solution for one or more of the Air Loop HVAC systems did not appear to converge
   **   ~~~   ** Air System Named = CENTRAL SYSTEM did not converge for mass flow rate
   **   ~~~   ** Check values should be zero. Most Recent values listed first.
   **   ~~~   ** Demand-to-Supply interface mass flow rate check value iteration history trace: 8.387052E-002,8.387052E-002,8.387052E-002,8.387052E-002,8.387052E-002,8.387052E-002,8.387052E-002,8.387052E-002,8.387052E-002,8.387052E-002,
   **   ~~~   ** Supply-to-demand interface deck 1 mass flow rate check value iteration history trace: 8.387052E-002,8.387052E-002,8.387052E-002,8.387052E-002,8.387052E-002,8.387052E-002,8.387052E-002,8.387052E-002,8.387052E-002,8.387052E-002,
   **   ~~~   ** Air System Named = CENTRAL SYSTEM did not converge for energy
   **   ~~~   ** Check values should be zero. Most Recent values listed first.
   **   ~~~   ** Demand-to-Supply interface energy check value iteration history trace: 1662.767207,1662.767207,1662.767207,1662.767207,1662.767207,1662.767207,1662.767207,1662.767207,1662.767206,1662.767206,
   **   ~~~   ** Supply-to-demand interface deck 1 energy check value iteration history trace: 2843.244999,2843.244998,2843.244998,2843.244998,2843.244998,2843.244998,2843.244998,2843.244997,2843.244997,2843.244997,
   ** Warning ** SimHVAC: Maximum iterations (20) exceeded for all HVAC loops, at ANNUAL, 11/04 10:15 - 10:22
   **   ~~~   ** The solution for one or more of the Air Loop HVAC systems did not appear to converge
   **   ~~~   ** Air System Named = CENTRAL SYSTEM did not converge for mass flow rate
   **   ~~~   ** Check values should be zero. Most Recent values listed first.
   **   ~~~   ** Demand-to-Supply interface mass flow rate check value iteration history trace: 5.847740E-002,5.847740E-002,5.847740E-002,5.847740E-002,5.847740E-002,5.847740E-002,5.847740E-002,5.847740E-002,5.847740E-002,5.847740E-002,
   **   ~~~   ** Supply-to-demand interface deck 1 mass flow rate check value iteration history trace: 5.847740E-002,5.847740E-002,5.847740E-002,5.847740E-002,5.847740E-002,5.847740E-002,5.847740E-002,5.847740E-002,5.847740E-002,5.847740E-002,
   **   ~~~   ** Air System Named = CENTRAL SYSTEM did not converge for energy
   **   ~~~   ** Check values should be zero. Most Recent values listed first.
   **   ~~~   ** Demand-to-Supply interface energy check value iteration history trace: 1155.304149,1155.304149,1155.304149,1155.304149,1155.304149,1155.304149,1155.304149,1155.304149,1155.304149,1155.304149,
   **   ~~~   ** Supply-to-demand interface deck 1 energy check value iteration history trace: 2088.759527,2088.759527,2088.759527,2088.759527,2088.759527,2088.759527,2088.759527,2088.759527,2088.759527,2088.759527,
   ** Warning ** SimHVAC: Maximum iterations (20) exceeded for all HVAC loops, at ANNUAL, 11/11 09:42 - 09:45
   **   ~~~   ** The solution for one or more of the Air Loop HVAC systems did not appear to converge
   **   ~~~   ** Air System Named = CENTRAL SYSTEM did not converge for mass flow rate
   **   ~~~   ** Check values should be zero. Most Recent values listed first.
   **   ~~~   ** Demand-to-Supply interface mass flow rate check value iteration history trace: 8.843647E-002,8.843647E-002,8.843647E-002,8.843647E-002,8.843647E-002,8.843647E-002,8.843647E-002,8.843647E-002,8.843647E-002,8.843647E-002,
   **   ~~~   ** Supply-to-demand interface deck 1 mass flow rate check value iteration history trace: 8.843647E-002,8.843647E-002,8.843647E-002,8.843647E-002,8.843647E-002,8.843647E-002,8.843647E-002,8.843647E-002,8.843647E-002,8.843647E-002,
   **   ~~~   ** Air System Named = CENTRAL SYSTEM did not converge for energy
   **   ~~~   ** Check values should be zero. Most Recent values listed first.
   **   ~~~   ** Demand-to-Supply interface energy check value iteration history trace: 1745.294258,1745.294258,1745.294258,1745.294258,1745.294258,1745.294258,1745.294258,1745.294258,1745.294258,1745.294258,
   **   ~~~   ** Supply-to-demand interface deck 1 energy check value iteration history trace: 2951.343613,2951.343613,2951.343613,2951.343612,2951.343612,2951.343612,2951.343612,2951.343612,2951.343612,2951.343611,
   ** Warning ** SimHVAC: Maximum iterations (20) exceeded for all HVAC loops, at ANNUAL, 12/05 19:30 - 19:45
   **   ~~~   ** The solution for one or more of the Air Loop HVAC systems did not appear to converge
   **   ~~~   ** Air System Named = CENTRAL SYSTEM did not converge for mass flow rate
   **   ~~~   ** Check values should be zero. Most Recent values listed first.
   **   ~~~   ** Demand-to-Supply interface mass flow rate check value iteration history trace: 7.272406E-002,7.272406E-002,7.272406E-002,7.272406E-002,7.272406E-002,7.272406E-002,7.272406E-002,7.272406E-002,7.272406E-002,7.272406E-002,
   **   ~~~   ** Supply-to-demand interface deck 1 mass flow rate check value iteration history trace: 7.272406E-002,7.272406E-002,7.272406E-002,7.272406E-002,7.272406E-002,7.272406E-002,7.272406E-002,7.272406E-002,7.272406E-002,7.272406E-002,
   **   ~~~   ** Air System Named = CENTRAL SYSTEM did not converge for energy
   **   ~~~   ** Check values should be zero. Most Recent values listed first.
   **   ~~~   ** Demand-to-Supply interface energy check value iteration history trace: 1441.321982,1441.321982,1441.321982,1441.321982,1441.321982,1441.321982,1441.321982,1441.321982,1441.321982,1441.321982,
   **   ~~~   ** Supply-to-demand interface deck 1 energy check value iteration history trace: 2547.873114,2547.873114,2547.873114,2547.873114,2547.873114,2547.873114,2547.873113,2547.873113,2547.873113,2547.873113,
   ** Warning ** SimHVAC: Maximum iterations (20) exceeded for all HVAC loops, at ANNUAL, 12/07 19:00 - 19:05
   **   ~~~   ** The solution for one or more of the Air Loop HVAC systems did not appear to converge
   **   ~~~   ** Air System Named = CENTRAL SYSTEM did not converge for mass flow rate
   **   ~~~   ** Check values should be zero. Most Recent values listed first.
   **   ~~~   ** Demand-to-Supply interface mass flow rate check value iteration history trace: 0.109438,0.109438,0.109438,0.109438,0.109438,0.109438,0.109438,0.109438,0.109438,0.109438,
   **   ~~~   ** Supply-to-demand interface deck 1 mass flow rate check value iteration history trace: 0.109438,0.109438,0.109438,0.109438,0.109438,0.109438,0.109438,0.109438,0.109438,0.109438,
   **   ~~~   ** Air System Named = CENTRAL SYSTEM did not converge for energy
   **   ~~~   ** Check values should be zero. Most Recent values listed first.
   **   ~~~   ** Demand-to-Supply interface energy check value iteration history trace: 2161.275714,2161.275714,2161.275714,2161.275714,2161.275714,2161.275714,2161.275714,2161.275713,2161.275713,2161.275713,
   **   ~~~   ** Supply-to-demand interface deck 1 energy check value iteration history trace: 3328.120988,3328.120987,3328.120987,3328.120987,3328.120987,3328.120987,3328.120986,3328.120986,3328.120986,3328.120986,
   ** Warning ** SimHVAC: Maximum iterations (20) exceeded for all HVAC loops, at ANNUAL, 12/19 19:53 - 20:00
   **   ~~~   ** The solution for one or more of the Air Loop HVAC systems did not appear to converge
   **   ~~~   ** Air System Named = CENTRAL SYSTEM did not converge for mass flow rate
   **   ~~~   ** Check values should be zero. Most Recent values listed first.
   **   ~~~   ** Demand-to-Supply interface mass flow rate check value iteration history trace: 8.306112E-002,8.306112E-002,8.306112E-002,8.306112E-002,8.306112E-002,8.306112E-002,8.306112E-002,8.306112E-002,8.306112E-002,8.306112E-002,
   **   ~~~   ** Supply-to-demand interface deck 1 mass flow rate check value iteration history trace: 8.306112E-002,8.306112E-002,8.306112E-002,8.306112E-002,8.306112E-002,8.306112E-002,8.306112E-002,8.306112E-002,8.306112E-002,8.306112E-002,
   **   ~~~   ** Air System Named = CENTRAL SYSTEM did not converge for energy
   **   ~~~   ** Check values should be zero. Most Recent values listed first.
   **   ~~~   ** Demand-to-Supply interface energy check value iteration history trace: 1645.027192,1645.027192,1645.027191,1645.027191,1645.027191,1645.027191,1645.027191,1645.027191,1645.027191,1645.027191,
   **   ~~~   ** Supply-to-demand interface deck 1 energy check value iteration history trace: 2765.749697,2765.749697,2765.749697,2765.749697,2765.749697,2765.749697,2765.749696,2765.749696,2765.749696,2765.749696,
   ************* Simulation Error Summary *************
   ** Warning ** The following Report Variables were requested but not generated -- check.rdd file
   **   ~~~   ** Either the IDF did not contain these elements, the variable name is misspelled,
   **   ~~~   ** or the requested variable is an advanced output which requires Output : Diagnostics, DisplayAdvancedReportVariables;
   ************* Key=*, VarName=BASEBOARD TOTAL HEATING ENERGY, Frequency=
   ************* Key=*, VarName=WATER HEATER NATURALGAS ENERGY, Frequency=
   ************* Key=*, VarName=COOLING COIL TOTAL HEATING ENERGY, Frequency=
   ************* There are 34 unused schedules in input.
   ************* There are 388 unused week schedules in input.
   ************* There are 396 unused day schedules in input.
   ************* Use Output:Diagnostics,DisplayUnusedSchedules; to see them.
   *************
   ************* ===== Recurring Error Summary =====
   ************* The following recurring error messages occurred.
   *************
   *************  ** Warning ** "TOTAL HOT WATER LOAD" - Target water temperature should be less than or equal to the hot water temperature error continues...
   *************  **   ~~~   **   This error occurred 80681 total times;
   *************  **   ~~~   **   during Warmup 0 times;
   *************  **   ~~~   **   during Sizing 0 times.
   *************  **   ~~~   **   Max=10.249046  Min=2.711372E-005
   *************
   *************  ** Warning ** Temperature out of range [-100. to 200.] (PsyPsatFnTemp)
   *************  **   ~~~   **   This error occurred 1 total times;
   *************  **   ~~~   **   during Warmup 0 times;
   *************  **   ~~~   **   during Sizing 0 times.
   *************  **   ~~~   **   Max=-323.735031 C  Min=-323.735031 C
   *************
   *************
   ************* ===== Final Error Summary =====
   ************* The following error categories occurred.  Consider correcting or noting.
   ************* Nominally Unused Constructions
   ************* ..The nominally unused constructions warning is provided to alert you to potential conditions that can cause
   ************* ..extra time during simulation. Each construction is calculated by the algorithm indicated in the HeatBalanceAlgorithm
   ************* ..object. You may remove the constructions indicated (when you use the DisplayExtraWarnings option).
   *************
   ************* EnergyPlus Warmup Error Summary. During Warmup: 1 Warning; 0 Severe Errors.
   ************* EnergyPlus Sizing Error Summary. During Sizing: 4 Warning; 0 Severe Errors.
   ************* EnergyPlus Completed Successfully-- 80711 Warning; 0 Severe Errors; Elapsed Time=00hr 04min 30.50sec
