Program Version,EnergyPlus, Version 22.2.0-c249759bad, YMD=2023.09.01 18:55,
   ************* Beginning Zone Sizing Calculations
   ** Warning ** ProcessScheduleInput: Schedule:Constant="ALWAYS ON DISCRETE", Schedule Type Limits Name="ONOFF" not found -- will not be validated
   ** Warning ** Foundation:Kiva="KIVA FOUNDATION", no Interior Horizontal Insulation Material Name defined
   **   ~~~   ** Interior Horizontal Insulation Depth will not be used.
   ** Warning ** CheckUsedConstructions: There are 15 nominally unused constructions in input.
   **   ~~~   ** Each Unused construction is shown.
   ************* Construction=INTERIOR FLOOR
   ************* Construction=INTERIOR WINDOW
   ************* Construction=EXTERIOR DOOR
   ************* Construction=INTERIOR DOOR
   ************* Construction=GABLE CONSTRUCTION
   ************* Construction=CRAWL_FLOOR
   ************* Construction=INSULATED PIPE
   ************* Construction=PLAIN PIPE
   ************* Construction=TDD PIPE
   ************* Construction=TDD DOME
   ************* Construction=TDD DIFFUSER
   ************* Construction=CRAWL WALL
   ************* Construction=CEILING-FLOOR-LAYER
   ************* Construction=SLAB CONSTRUCTION W FULL R10 INSULATION
   ************* Construction=SLAB CONSTRUCTION W FULL R5 INSULATION
   ** Warning ** GetDXCoils: Coil:Heating:DX:SingleSpeed="DX_HEATING_COIL" curve values
   **   ~~~   ** ... Defrost Energy Input Ratio Function of Temperature Curve Name = DEFROSTEIR output is not equal to 1.0 (+ or - 10%) at rated conditions.
   **   ~~~   ** ... Curve output at rated conditions = 0.152
   ************* Beginning System Sizing Calculations
   ************* Beginning Plant Sizing Calculations
   ** Warning ** SizeDXCoil Coil:Cooling:DX:SingleSpeed DX_COOLING_COIL
   **   ~~~   ** ...Gross Rated Total Cooling Capacity [W] will be limited by the maximum rated volume flow per rated total capacity ratio.
   **   ~~~   ** ...DX coil volume flow rate ( m3/s ) = 0.291995
   **   ~~~   ** ...Requested capacity ( W ) = 4204.131
   **   ~~~   ** ...Requested flow/capacity ratio ( m3/s/W ) = 6.945E-005
   **   ~~~   ** ...Maximum flow/capacity ratio ( m3/s/W ) = 6.041E-005
   **   ~~~   ** ...Adjusted capacity ( W ) = 4833.559
   ** Warning ** Coil:WaterHeating:AirToWaterHeatPump:Wrapped "HEAT PUMP WATER HEATER EVAPORATOR": Rated air volume flow rate per watt of rated total water heating capacity is out of range
   **   ~~~   ** Min Rated Vol Flow Per Watt=[4.027E-005], Rated Vol Flow Per Watt=[1.510E-004], Max Rated Vol Flow Per Watt=[8.056E-005]. See Input-Output Reference Manual for valid range.
   ************* SizeFan: : Potential issue with equipment sizing for Fan:OnOff HEAT PUMP WATER HEATER FAN
   **   ~~~   ** User-Specified Maximum Flow Rate [m3/s] = 0.22653
   **   ~~~   ** differs from Design Size Maximum Flow Rate [m3/s] = 7.55250E-002
   **   ~~~   ** This may, or may not, indicate mismatched component sizes.
   **   ~~~   ** Verify that the value entered is intended and is consistent with other components.
   ** Warning ** Water heater = WATER HEATER TANK:  Recovery Efficiency and Energy Factor could not be calculated during the test for standard ratings
   **   ~~~   ** Setpoint was never recovered and/or heater never turned on
   ** Warning ** Check input. Pump nominal power or motor efficiency is set to 0, for pump=MAINS PRESSURE
   ** Warning ** AirflowNetwork::Solver::validate_distribution: Heat pump water heater is simulated along with an AirflowNetwork but is not included in the AirflowNetwork.
   ** Warning ** Output:Meter: invalid Key Name="ELECTRIC_RANGE:INTERIOREQUIPMENT:ELECTRICITY" - not found.
   ** Warning ** Output:Meter: invalid Key Name="ELECTRIC_DRYER:INTERIOREQUIPMENT:ELECTRICITY" - not found.
   ** Warning ** Output:Meter: invalid Key Name="HEATRECOVERY:ELECTRICITY" - not found.
   ** Warning ** Output:Meter: invalid Key Name="HEATING:NATURALGAS" - not found.
   ** Warning ** Output:Meter: invalid Key Name="WATERSYSTEMS:NATURALGAS" - not found.
   ** Warning ** Output:Meter: invalid Key Name="PROPANE:FACILITY" - not found.
   ** Warning ** Output:Meter: invalid Key Name="HEATING:PROPANE" - not found.
   ************* Testing Individual Branch Integrity
   ************* All Branches passed integrity testing
   ************* Testing Individual Supply Air Path Integrity
   ************* All Supply Air Paths passed integrity testing
   ************* Testing Individual Return Air Path Integrity
   ************* All Return Air Paths passed integrity testing
   ************* No node connection errors were found.
   ************* Beginning Simulation
   ** Warning ** CalcEquipmentFlowRates: "TOTAL HOT WATER LOAD" - Target water temperature is greater than the hot water temperature by (0.67 C)
   **   ~~~   **  Environment=EXTREME_WINTER, at Simulation time=12/22 03:45 - 04:00
   **   ~~~   ** ...target water temperature     = 53.33 C
   **   ~~~   ** ...hot water temperature        = 52.66 C
   **   ~~~   ** ...Target water temperature should be less than or equal to the hot water temperature. Verify temperature setpoints and schedules.
   ** Warning ** SimHVAC: Maximum iterations (20) exceeded for all HVAC loops, at ANNUAL, 03/26 13:15 - 13:17
   **   ~~~   ** The solution for one or more of the Air Loop HVAC systems did not appear to converge
   **   ~~~   ** Air System Named = CENTRAL SYSTEM did not converge for mass flow rate
   **   ~~~   ** Check values should be zero. Most Recent values listed first.
   **   ~~~   ** Demand-to-Supply interface mass flow rate check value iteration history trace: 7.035465E-002,7.035465E-002,7.035465E-002,7.035465E-002,7.035465E-002,7.035465E-002,7.035465E-002,7.035465E-002,7.035465E-002,7.035465E-002,
   **   ~~~   ** Supply-to-demand interface deck 1 mass flow rate check value iteration history trace: 7.035465E-002,7.035465E-002,7.035465E-002,7.035465E-002,7.035465E-002,7.035465E-002,7.035465E-002,7.035465E-002,7.035465E-002,7.035465E-002,
   **   ~~~   ** Air System Named = CENTRAL SYSTEM did not converge for energy
   **   ~~~   ** Check values should be zero. Most Recent values listed first.
   **   ~~~   ** Demand-to-Supply interface energy check value iteration history trace: 1385.886420,1385.886420,1385.886420,1385.886419,1385.886419,1385.886419,1385.886419,1385.886419,1385.886419,1385.886419,
   **   ~~~   ** Supply-to-demand interface deck 1 energy check value iteration history trace: 2336.990784,2336.990784,2336.990784,2336.990784,2336.990784,2336.990784,2336.990784,2336.990784,2336.990784,2336.990784,
   ** Warning ** Temperature out of range [-100. to 200.] (PsyPsatFnTemp)
   **   ~~~   **  Routine=PsyTwbFnTdbWPb, Environment=ANNUAL, at Simulation time=03/26 18:00 - 18:04
   **   ~~~   **  Input Temperature=-1469.43
   ** Warning ** SimHVAC: Maximum iterations (20) exceeded for all HVAC loops, at ANNUAL, 04/14 22:15 - 22:22
   **   ~~~   ** The solution for one or more of the Air Loop HVAC systems did not appear to converge
   **   ~~~   ** Air System Named = CENTRAL SYSTEM did not converge for mass flow rate
   **   ~~~   ** Check values should be zero. Most Recent values listed first.
   **   ~~~   ** Demand-to-Supply interface mass flow rate check value iteration history trace: 9.695206E-002,9.695206E-002,9.695206E-002,9.695206E-002,9.695206E-002,9.695206E-002,9.695206E-002,9.695206E-002,9.695206E-002,9.695206E-002,
   **   ~~~   ** Supply-to-demand interface deck 1 mass flow rate check value iteration history trace: 9.695206E-002,9.695206E-002,9.695206E-002,9.695206E-002,9.695206E-002,9.695206E-002,9.695206E-002,9.695206E-002,9.695206E-002,9.695206E-002,
   **   ~~~   ** Air System Named = CENTRAL SYSTEM did not converge for energy
   **   ~~~   ** Check values should be zero. Most Recent values listed first.
   **   ~~~   ** Demand-to-Supply interface energy check value iteration history trace: 1842.505181,1842.505181,1842.505181,1842.505181,1842.505181,1842.505181,1842.505181,1842.505180,1842.505180,1842.505180,
   **   ~~~   ** Supply-to-demand interface deck 1 energy check value iteration history trace: 2776.547594,2776.547593,2776.547593,2776.547593,2776.547593,2776.547593,2776.547592,2776.547592,2776.547592,2776.547592,
   ** Warning ** SimHVAC: Maximum iterations (20) exceeded for all HVAC loops, at ANNUAL, 04/19 09:30 - 09:45
   **   ~~~   ** The solution for one or more of the Air Loop HVAC systems did not appear to converge
   **   ~~~   ** Air System Named = CENTRAL SYSTEM did not converge for mass flow rate
   **   ~~~   ** Check values should be zero. Most Recent values listed first.
   **   ~~~   ** Demand-to-Supply interface mass flow rate check value iteration history trace: 6.835589E-002,6.835589E-002,6.835589E-002,6.835589E-002,6.835589E-002,6.835589E-002,6.835589E-002,6.835589E-002,6.835589E-002,6.835589E-002,
   **   ~~~   ** Supply-to-demand interface deck 1 mass flow rate check value iteration history trace: 6.835589E-002,6.835589E-002,6.835589E-002,6.835589E-002,6.835589E-002,6.835589E-002,6.835589E-002,6.835589E-002,6.835589E-002,6.835589E-002,
   **   ~~~   ** Air System Named = CENTRAL SYSTEM did not converge for energy
   **   ~~~   ** Check values should be zero. Most Recent values listed first.
   **   ~~~   ** Demand-to-Supply interface energy check value iteration history trace: 1354.533743,1354.533743,1354.533743,1354.533743,1354.533743,1354.533742,1354.533742,1354.533742,1354.533742,1354.533742,
   **   ~~~   ** Supply-to-demand interface deck 1 energy check value iteration history trace: 2316.376029,2316.376029,2316.376029,2316.376029,2316.376028,2316.376028,2316.376028,2316.376028,2316.376028,2316.376028,
   ** Warning ** SimHVAC: Maximum iterations (20) exceeded for all HVAC loops, at ANNUAL, 04/19 09:30 - 09:38
   **   ~~~   ** The solution for one or more of the Air Loop HVAC systems did not appear to converge
   **   ~~~   ** Air System Named = CENTRAL SYSTEM did not converge for mass flow rate
   **   ~~~   ** Check values should be zero. Most Recent values listed first.
   **   ~~~   ** Demand-to-Supply interface mass flow rate check value iteration history trace: 6.908132E-002,6.908132E-002,6.908132E-002,6.908132E-002,6.908132E-002,6.908132E-002,6.908132E-002,6.908132E-002,6.908132E-002,6.908132E-002,
   **   ~~~   ** Supply-to-demand interface deck 1 mass flow rate check value iteration history trace: 6.908132E-002,6.908132E-002,6.908132E-002,6.908132E-002,6.908132E-002,6.908132E-002,6.908132E-002,6.908132E-002,6.908132E-002,6.908132E-002,
   **   ~~~   ** Air System Named = CENTRAL SYSTEM did not converge for energy
   **   ~~~   ** Check values should be zero. Most Recent values listed first.
   **   ~~~   ** Demand-to-Supply interface energy check value iteration history trace: 1368.922907,1368.922907,1368.922907,1368.922907,1368.922907,1368.922906,1368.922906,1368.922906,1368.922906,1368.922906,
   **   ~~~   ** Supply-to-demand interface deck 1 energy check value iteration history trace: 2340.975042,2340.975042,2340.975041,2340.975041,2340.975041,2340.975041,2340.975041,2340.975041,2340.975041,2340.975041,
   ** Warning ** SimHVAC: Maximum iterations (20) exceeded for all HVAC loops, at ANNUAL, 05/13 11:23 - 11:30
   **   ~~~   ** The solution for one or more of the Air Loop HVAC systems did not appear to converge
   **   ~~~   ** Air System Named = CENTRAL SYSTEM did not converge for mass flow rate
   **   ~~~   ** Check values should be zero. Most Recent values listed first.
   **   ~~~   ** Demand-to-Supply interface mass flow rate check value iteration history trace: 6.743670E-002,6.743670E-002,6.743670E-002,6.743670E-002,6.743670E-002,6.743670E-002,6.743670E-002,6.743670E-002,6.743670E-002,6.743670E-002,
   **   ~~~   ** Supply-to-demand interface deck 1 mass flow rate check value iteration history trace: 6.743670E-002,6.743670E-002,6.743670E-002,6.743670E-002,6.743670E-002,6.743670E-002,6.743670E-002,6.743670E-002,6.743670E-002,6.743670E-002,
   **   ~~~   ** Air System Named = CENTRAL SYSTEM did not converge for energy
   **   ~~~   ** Check values should be zero. Most Recent values listed first.
   **   ~~~   ** Demand-to-Supply interface energy check value iteration history trace: 1329.673369,1329.673369,1329.673369,1329.673368,1329.673368,1329.673368,1329.673368,1329.673368,1329.673368,1329.673368,
   **   ~~~   ** Supply-to-demand interface deck 1 energy check value iteration history trace: 2295.393010,2295.393010,2295.393010,2295.393010,2295.393010,2295.393010,2295.393010,2295.393010,2295.393010,2295.393009,
   ** Warning ** SimHVAC: Maximum iterations (20) exceeded for all HVAC loops, at ANNUAL, 05/15 09:45 - 09:50
   **   ~~~   ** The solution for one or more of the Air Loop HVAC systems did not appear to converge
   **   ~~~   ** Air System Named = CENTRAL SYSTEM did not converge for mass flow rate
   **   ~~~   ** Check values should be zero. Most Recent values listed first.
   **   ~~~   ** Demand-to-Supply interface mass flow rate check value iteration history trace: 5.473125E-002,5.473125E-002,5.473125E-002,5.473125E-002,5.473125E-002,5.473125E-002,5.473125E-002,5.473125E-002,5.473125E-002,5.473125E-002,
   **   ~~~   ** Supply-to-demand interface deck 1 mass flow rate check value iteration history trace: 5.473125E-002,5.473125E-002,5.473125E-002,5.473125E-002,5.473125E-002,5.473125E-002,5.473125E-002,5.473125E-002,5.473125E-002,5.473125E-002,
   **   ~~~   ** Air System Named = CENTRAL SYSTEM did not converge for energy
   **   ~~~   ** Check values should be zero. Most Recent values listed first.
   **   ~~~   ** Demand-to-Supply interface energy check value iteration history trace: 1084.602166,1084.602166,1084.602166,1084.602166,1084.602166,1084.602166,1084.602166,1084.602166,1084.602166,1084.602166,
   **   ~~~   ** Supply-to-demand interface deck 1 energy check value iteration history trace: 1894.141942,1894.141942,1894.141942,1894.141941,1894.141941,1894.141941,1894.141941,1894.141941,1894.141941,1894.141941,
   ** Warning ** SimHVAC: Maximum iterations (20) exceeded for all HVAC loops, at ANNUAL, 05/29 05:00 - 05:15
   **   ~~~   ** The solution for one or more of the Air Loop HVAC systems did not appear to converge
   **   ~~~   ** Air System Named = CENTRAL SYSTEM did not converge for mass flow rate
   **   ~~~   ** Check values should be zero. Most Recent values listed first.
   **   ~~~   ** Demand-to-Supply interface mass flow rate check value iteration history trace: 6.150519E-002,6.150519E-002,6.150519E-002,6.150519E-002,6.150519E-002,6.150519E-002,6.150519E-002,6.150519E-002,6.150519E-002,6.150519E-002,
   **   ~~~   ** Supply-to-demand interface deck 1 mass flow rate check value iteration history trace: 6.150519E-002,6.150519E-002,6.150519E-002,6.150519E-002,6.150519E-002,6.150519E-002,6.150519E-002,6.150519E-002,6.150519E-002,6.150519E-002,
   **   ~~~   ** Air System Named = CENTRAL SYSTEM did not converge for energy
   **   ~~~   ** Check values should be zero. Most Recent values listed first.
   **   ~~~   ** Demand-to-Supply interface energy check value iteration history trace: 1197.207894,1197.207894,1197.207894,1197.207894,1197.207894,1197.207894,1197.207894,1197.207894,1197.207894,1197.207894,
   **   ~~~   ** Supply-to-demand interface deck 1 energy check value iteration history trace: 2091.676511,2091.676511,2091.676511,2091.676511,2091.676511,2091.676511,2091.676511,2091.676511,2091.676511,2091.676511,
   ** Warning ** SimHVAC: Maximum iterations (20) exceeded for all HVAC loops, at ANNUAL, 06/07 08:45 - 08:52
   **   ~~~   ** The solution for one or more of the Air Loop HVAC systems did not appear to converge
   **   ~~~   ** Air System Named = CENTRAL SYSTEM did not converge for mass flow rate
   **   ~~~   ** Check values should be zero. Most Recent values listed first.
   **   ~~~   ** Demand-to-Supply interface mass flow rate check value iteration history trace: 6.461604E-002,6.461604E-002,6.461604E-002,6.461604E-002,6.461604E-002,6.461604E-002,6.461604E-002,6.461604E-002,6.461604E-002,6.461604E-002,
   **   ~~~   ** Supply-to-demand interface deck 1 mass flow rate check value iteration history trace: 6.461604E-002,6.461604E-002,6.461604E-002,6.461604E-002,6.461604E-002,6.461604E-002,6.461604E-002,6.461604E-002,6.461604E-002,6.461604E-002,
   **   ~~~   ** Air System Named = CENTRAL SYSTEM did not converge for energy
   **   ~~~   ** Check values should be zero. Most Recent values listed first.
   **   ~~~   ** Demand-to-Supply interface energy check value iteration history trace: 1280.374580,1280.374580,1280.374580,1280.374580,1280.374580,1280.374580,1280.374580,1280.374580,1280.374580,1280.374579,
   **   ~~~   ** Supply-to-demand interface deck 1 energy check value iteration history trace: 2282.113330,2282.113330,2282.113330,2282.113330,2282.113330,2282.113330,2282.113329,2282.113329,2282.113329,2282.113329,
   ** Warning ** SimHVAC: Maximum iterations (20) exceeded for all HVAC loops, at ANNUAL, 07/12 08:38 - 08:45
   **   ~~~   ** The solution for one or more of the Air Loop HVAC systems did not appear to converge
   **   ~~~   ** Air System Named = CENTRAL SYSTEM did not converge for mass flow rate
   **   ~~~   ** Check values should be zero. Most Recent values listed first.
   **   ~~~   ** Demand-to-Supply interface mass flow rate check value iteration history trace: 1.154318E-002,1.154318E-002,1.154318E-002,1.154318E-002,1.154318E-002,1.154318E-002,1.154318E-002,1.154318E-002,1.154318E-002,1.154318E-002,
   **   ~~~   ** Supply-to-demand interface deck 1 mass flow rate check value iteration history trace: 1.154318E-002,1.154318E-002,1.154318E-002,1.154318E-002,1.154318E-002,1.154318E-002,1.154318E-002,1.154318E-002,1.154318E-002,1.154318E-002,
   **   ~~~   ** Air System Named = CENTRAL SYSTEM did not converge for energy
   **   ~~~   ** Check values should be zero. Most Recent values listed first.
   **   ~~~   ** Demand-to-Supply interface energy check value iteration history trace: 270.584642,270.584642,270.584642,270.584642,270.584642,270.584642,270.584642,270.584642,270.584643,270.584643,
   **   ~~~   ** Supply-to-demand interface deck 1 energy check value iteration history trace: 144.536938,144.536938,144.536938,144.536938,144.536938,144.536938,144.536938,144.536938,144.536938,144.536938,
   ** Warning ** SimHVAC: Maximum iterations (20) exceeded for all HVAC loops, at ANNUAL, 07/13 07:23 - 07:30
   **   ~~~   ** The solution for one or more of the Air Loop HVAC systems did not appear to converge
   **   ~~~   ** Air System Named = CENTRAL SYSTEM did not converge for mass flow rate
   **   ~~~   ** Check values should be zero. Most Recent values listed first.
   **   ~~~   ** Demand-to-Supply interface mass flow rate check value iteration history trace: 1.368919E-002,1.368919E-002,1.368919E-002,1.368919E-002,1.368919E-002,1.368919E-002,1.368919E-002,1.368919E-002,1.368919E-002,1.368919E-002,
   **   ~~~   ** Supply-to-demand interface deck 1 mass flow rate check value iteration history trace: 1.368919E-002,1.368919E-002,1.368919E-002,1.368919E-002,1.368919E-002,1.368919E-002,1.368919E-002,1.368919E-002,1.368919E-002,1.368919E-002,
   **   ~~~   ** Air System Named = CENTRAL SYSTEM did not converge for energy
   **   ~~~   ** Check values should be zero. Most Recent values listed first.
   **   ~~~   ** Demand-to-Supply interface energy check value iteration history trace: 322.703078,322.703078,322.703078,322.703078,322.703078,322.703078,322.703078,322.703079,322.703079,322.703079,
   **   ~~~   ** Supply-to-demand interface deck 1 energy check value iteration history trace: 168.731256,168.731256,168.731256,168.731256,168.731256,168.731256,168.731256,168.731256,168.731256,168.731256,
   ** Warning ** SimHVAC: Maximum iterations (20) exceeded for all HVAC loops, at ANNUAL, 07/22 06:53 - 06:56
   **   ~~~   ** The solution for one or more of the Air Loop HVAC systems did not appear to converge
   **   ~~~   ** Air System Named = CENTRAL SYSTEM did not converge for mass flow rate
   **   ~~~   ** Check values should be zero. Most Recent values listed first.
   **   ~~~   ** Demand-to-Supply interface mass flow rate check value iteration history trace: 7.644545E-002,7.644545E-002,7.644545E-002,7.644545E-002,7.644545E-002,7.644545E-002,7.644545E-002,7.644545E-002,7.644545E-002,7.644545E-002,
   **   ~~~   ** Supply-to-demand interface deck 1 mass flow rate check value iteration history trace: 7.644545E-002,7.644545E-002,7.644545E-002,7.644545E-002,7.644545E-002,7.644545E-002,7.644545E-002,7.644545E-002,7.644545E-002,7.644545E-002,
   **   ~~~   ** Air System Named = CENTRAL SYSTEM did not converge for energy
   **   ~~~   ** Check values should be zero. Most Recent values listed first.
   **   ~~~   ** Demand-to-Supply interface energy check value iteration history trace: 1807.606335,1807.606335,1807.606336,1807.606336,1807.606337,1807.606337,1807.606338,1807.606338,1807.606339,1807.606339,
   **   ~~~   ** Supply-to-demand interface deck 1 energy check value iteration history trace: 986.750351,986.750352,986.750352,986.750352,986.750352,986.750353,986.750353,986.750353,986.750353,986.750354,
   ** Warning ** SimHVAC: Maximum iterations (20) exceeded for all HVAC loops, at ANNUAL, 07/22 07:30 - 07:45
   **   ~~~   ** The solution for one or more of the Air Loop HVAC systems did not appear to converge
   **   ~~~   ** Air System Named = CENTRAL SYSTEM did not converge for mass flow rate
   **   ~~~   ** Check values should be zero. Most Recent values listed first.
   **   ~~~   ** Demand-to-Supply interface mass flow rate check value iteration history trace: 0.103258,0.103258,0.103258,0.103258,0.103258,0.103258,0.103258,0.103258,0.103258,0.103258,
   **   ~~~   ** Supply-to-demand interface deck 1 mass flow rate check value iteration history trace: 0.103258,0.103258,0.103258,0.103258,0.103258,0.103258,0.103258,0.103258,0.103258,0.103258,
   **   ~~~   ** Air System Named = CENTRAL SYSTEM did not converge for energy
   **   ~~~   ** Check values should be zero. Most Recent values listed first.
   **   ~~~   ** Demand-to-Supply interface energy check value iteration history trace: 2439.011185,2439.011186,2439.011187,2439.011187,2439.011188,2439.011189,2439.011190,2439.011190,2439.011191,2439.011192,
   **   ~~~   ** Supply-to-demand interface deck 1 energy check value iteration history trace: 1325.602630,1325.602630,1325.602631,1325.602631,1325.602631,1325.602632,1325.602632,1325.602633,1325.602633,1325.602633,
   ** Warning ** SimHVAC: Maximum iterations (20) exceeded for all HVAC loops, at ANNUAL, 07/22 09:23 - 09:30
   **   ~~~   ** The solution for one or more of the Air Loop HVAC systems did not appear to converge
   **   ~~~   ** Air System Named = CENTRAL SYSTEM did not converge for mass flow rate
   **   ~~~   ** Check values should be zero. Most Recent values listed first.
   **   ~~~   ** Demand-to-Supply interface mass flow rate check value iteration history trace: 9.795775E-002,9.795775E-002,9.795775E-002,9.795775E-002,9.795775E-002,9.795775E-002,9.795775E-002,9.795775E-002,9.795775E-002,9.795775E-002,
   **   ~~~   ** Supply-to-demand interface deck 1 mass flow rate check value iteration history trace: 9.795775E-002,9.795775E-002,9.795775E-002,9.795775E-002,9.795775E-002,9.795775E-002,9.795775E-002,9.795775E-002,9.795775E-002,9.795775E-002,
   **   ~~~   ** Air System Named = CENTRAL SYSTEM did not converge for energy
   **   ~~~   ** Check values should be zero. Most Recent values listed first.
   **   ~~~   ** Demand-to-Supply interface energy check value iteration history trace: 2327.244376,2327.244377,2327.244378,2327.244378,2327.244379,2327.244380,2327.244381,2327.244382,2327.244382,2327.244383,
   **   ~~~   ** Supply-to-demand interface deck 1 energy check value iteration history trace: 1258.459257,1258.459257,1258.459258,1258.459258,1258.459259,1258.459259,1258.459259,1258.459260,1258.459260,1258.459261,
   ** Warning ** SimHVAC: Maximum iterations (20) exceeded for all HVAC loops, at ANNUAL, 07/22 10:06 - 10:09
   **   ~~~   ** The solution for one or more of the Air Loop HVAC systems did not appear to converge
   **   ~~~   ** Air System Named = CENTRAL SYSTEM did not converge for mass flow rate
   **   ~~~   ** Check values should be zero. Most Recent values listed first.
   **   ~~~   ** Demand-to-Supply interface mass flow rate check value iteration history trace: 7.421696E-002,7.421696E-002,7.421696E-002,7.421696E-002,7.421696E-002,7.421696E-002,7.421696E-002,7.421696E-002,7.421696E-002,7.421696E-002,
   **   ~~~   ** Supply-to-demand interface deck 1 mass flow rate check value iteration history trace: 7.421696E-002,7.421696E-002,7.421696E-002,7.421696E-002,7.421696E-002,7.421696E-002,7.421696E-002,7.421696E-002,7.421696E-002,7.421696E-002,
   **   ~~~   ** Air System Named = CENTRAL SYSTEM did not converge for energy
   **   ~~~   ** Check values should be zero. Most Recent values listed first.
   **   ~~~   ** Demand-to-Supply interface energy check value iteration history trace: 1745.203065,1745.203065,1745.203066,1745.203066,1745.203067,1745.203067,1745.203068,1745.203069,1745.203069,1745.203070,
   **   ~~~   ** Supply-to-demand interface deck 1 energy check value iteration history trace: 933.095445,933.095445,933.095446,933.095446,933.095446,933.095447,933.095447,933.095447,933.095447,933.095448,
   ************* Simulation Error Summary *************
   ** Warning ** The following Report Variables were requested but not generated -- check.rdd file
   **   ~~~   ** Either the IDF did not contain these elements, the variable name is misspelled,
   **   ~~~   ** or the requested variable is an advanced output which requires Output : Diagnostics, DisplayAdvancedReportVariables;
   ************* Key=*, VarName=BASEBOARD TOTAL HEATING ENERGY, Frequency=
   ************* Key=*, VarName=WATER HEATER NATURALGAS ENERGY, Frequency=
   ************* Key=*, VarName=COOLING COIL TOTAL HEATING ENERGY, Frequency=
   ************* There are 34 unused schedules in input.
   ************* There are 388 unused week schedules in input.
   ************* There are 396 unused day schedules in input.
   ************* Use Output:Diagnostics,DisplayUnusedSchedules; to see them.
   *************
   ************* ===== Recurring Error Summary =====
   ************* The following recurring error messages occurred.
   *************
   *************  ** Warning ** "TOTAL HOT WATER LOAD" - Target water temperature should be less than or equal to the hot water temperature error continues...
   *************  **   ~~~   **   This error occurred 54607 total times;
   *************  **   ~~~   **   during Warmup 0 times;
   *************  **   ~~~   **   during Sizing 0 times.
   *************  **   ~~~   **   Max=7.041437  Min=3.194025E-004
   *************
   *************  ** Warning ** Temperature out of range [-100. to 200.] (PsyPsatFnTemp)
   *************  **   ~~~   **   This error occurred 1 total times;
   *************  **   ~~~   **   during Warmup 0 times;
   *************  **   ~~~   **   during Sizing 0 times.
   *************  **   ~~~   **   Max=-1469.435303 C  Min=-1469.435303 C
   *************
   *************  ** Warning ** SimHVAC: Exceeding Maximum iterations for all HVAC loops, during ANNUAL continues
   *************  **   ~~~   **   This error occurred 14 total times;
   *************  **   ~~~   **   during Warmup 0 times;
   *************  **   ~~~   **   during Sizing 0 times.
   *************
   *************
   ************* ===== Final Error Summary =====
   ************* The following error categories occurred.  Consider correcting or noting.
   ************* Nominally Unused Constructions
   ************* ..The nominally unused constructions warning is provided to alert you to potential conditions that can cause
   ************* ..extra time during simulation. Each construction is calculated by the algorithm indicated in the HeatBalanceAlgorithm
   ************* ..object. You may remove the constructions indicated (when you use the DisplayExtraWarnings option).
   *************
   ************* EnergyPlus Warmup Error Summary. During Warmup: 0 Warning; 0 Severe Errors.
   ************* EnergyPlus Sizing Error Summary. During Sizing: 4 Warning; 0 Severe Errors.
   ************* EnergyPlus Completed Successfully-- 54654 Warning; 0 Severe Errors; Elapsed Time=00hr 01min 25.60sec
