Program Version,EnergyPlus, Version 22.2.0-c249759bad, YMD=2023.09.01 19:04,
   ************* Beginning Zone Sizing Calculations
   ** Warning ** ProcessScheduleInput: Schedule:Constant="ALWAYS ON DISCRETE", Schedule Type Limits Name="ONOFF" not found -- will not be validated
   ** Warning ** Foundation:Kiva="KIVA FOUNDATION", no Interior Horizontal Insulation Material Name defined
   **   ~~~   ** Interior Horizontal Insulation Depth will not be used.
   ** Warning ** CheckUsedConstructions: There are 15 nominally unused constructions in input.
   **   ~~~   ** Each Unused construction is shown.
   ************* Construction=INTERIOR FLOOR
   ************* Construction=INTERIOR WINDOW
   ************* Construction=EXTERIOR DOOR
   ************* Construction=INTERIOR DOOR
   ************* Construction=GABLE CONSTRUCTION
   ************* Construction=CRAWL_FLOOR
   ************* Construction=INSULATED PIPE
   ************* Construction=PLAIN PIPE
   ************* Construction=TDD PIPE
   ************* Construction=TDD DOME
   ************* Construction=TDD DIFFUSER
   ************* Construction=CRAWL WALL
   ************* Construction=CEILING-FLOOR-LAYER
   ************* Construction=SLAB CONSTRUCTION W FULL R10 INSULATION
   ************* Construction=SLAB CONSTRUCTION W FULL R5 INSULATION
   ** Warning ** GetDXCoils: Coil:Heating:DX:SingleSpeed="DX_HEATING_COIL" curve values
   **   ~~~   ** ... Defrost Energy Input Ratio Function of Temperature Curve Name = DEFROSTEIR output is not equal to 1.0 (+ or - 10%) at rated conditions.
   **   ~~~   ** ... Curve output at rated conditions = 0.152
   ************* Beginning System Sizing Calculations
   ************* Beginning Plant Sizing Calculations
   ** Warning ** SizeDXCoil Coil:Cooling:DX:SingleSpeed DX_COOLING_COIL
   **   ~~~   ** ...Gross Rated Total Cooling Capacity [W] will be limited by the maximum rated volume flow per rated total capacity ratio.
   **   ~~~   ** ...DX coil volume flow rate ( m3/s ) = 0.331113
   **   ~~~   ** ...Requested capacity ( W ) = 4761.042
   **   ~~~   ** ...Requested flow/capacity ratio ( m3/s/W ) = 6.954E-005
   **   ~~~   ** ...Maximum flow/capacity ratio ( m3/s/W ) = 6.041E-005
   **   ~~~   ** ...Adjusted capacity ( W ) = 5481.103
   ** Warning ** Coil:WaterHeating:AirToWaterHeatPump:Wrapped "HEAT PUMP WATER HEATER EVAPORATOR": Rated air volume flow rate per watt of rated total water heating capacity is out of range
   **   ~~~   ** Min Rated Vol Flow Per Watt=[4.027E-005], Rated Vol Flow Per Watt=[1.510E-004], Max Rated Vol Flow Per Watt=[8.056E-005]. See Input-Output Reference Manual for valid range.
   ************* SizeFan: : Potential issue with equipment sizing for Fan:OnOff HEAT PUMP WATER HEATER FAN
   **   ~~~   ** User-Specified Maximum Flow Rate [m3/s] = 0.22653
   **   ~~~   ** differs from Design Size Maximum Flow Rate [m3/s] = 7.55250E-002
   **   ~~~   ** This may, or may not, indicate mismatched component sizes.
   **   ~~~   ** Verify that the value entered is intended and is consistent with other components.
   ** Warning ** Water heater = WATER HEATER TANK:  Recovery Efficiency and Energy Factor could not be calculated during the test for standard ratings
   **   ~~~   ** Setpoint was never recovered and/or heater never turned on
   ** Warning ** Check input. Pump nominal power or motor efficiency is set to 0, for pump=MAINS PRESSURE
   ** Warning ** Output:Meter: invalid Key Name="ELECTRIC_RANGE:INTERIOREQUIPMENT:ELECTRICITY" - not found.
   ** Warning ** Output:Meter: invalid Key Name="ELECTRIC_DRYER:INTERIOREQUIPMENT:ELECTRICITY" - not found.
   ** Warning ** Output:Meter: invalid Key Name="HEATRECOVERY:ELECTRICITY" - not found.
   ** Warning ** Output:Meter: invalid Key Name="HEATING:NATURALGAS" - not found.
   ** Warning ** Output:Meter: invalid Key Name="WATERSYSTEMS:NATURALGAS" - not found.
   ** Warning ** Output:Meter: invalid Key Name="PROPANE:FACILITY" - not found.
   ** Warning ** Output:Meter: invalid Key Name="HEATING:PROPANE" - not found.
   ************* Testing Individual Branch Integrity
   ************* All Branches passed integrity testing
   ************* Testing Individual Supply Air Path Integrity
   ************* All Supply Air Paths passed integrity testing
   ************* Testing Individual Return Air Path Integrity
   ************* All Return Air Paths passed integrity testing
   ************* No node connection errors were found.
   ************* Beginning Simulation
   ** Warning ** AirflowNetwork::Solver::validate_distribution: Heat pump water heater is simulated along with an AirflowNetwork but is not included in the AirflowNetwork.
   ** Warning ** CalcEquipmentFlowRates: "TOTAL HOT WATER LOAD" - Target water temperature is greater than the hot water temperature by (0.67 C)
   **   ~~~   **  Environment=EXTREME_WINTER, at Simulation time=01/01 03:45 - 04:00
   **   ~~~   ** ...target water temperature     = 53.33 C
   **   ~~~   ** ...hot water temperature        = 52.66 C
   **   ~~~   ** ...Target water temperature should be less than or equal to the hot water temperature. Verify temperature setpoints and schedules.
   ** Warning ** SimHVAC: Maximum iterations (20) exceeded for all HVAC loops, at ANNUAL, 01/22 13:15 - 13:18
   **   ~~~   ** The solution for one or more of the Air Loop HVAC systems did not appear to converge
   **   ~~~   ** Air System Named = CENTRAL SYSTEM did not converge for mass flow rate
   **   ~~~   ** Check values should be zero. Most Recent values listed first.
   **   ~~~   ** Demand-to-Supply interface mass flow rate check value iteration history trace: 6.756033E-002,6.756033E-002,6.756033E-002,6.756033E-002,6.756033E-002,6.756033E-002,6.756033E-002,6.756033E-002,6.756033E-002,6.756033E-002,
   **   ~~~   ** Supply-to-demand interface deck 1 mass flow rate check value iteration history trace: 6.756033E-002,6.756033E-002,6.756033E-002,6.756033E-002,6.756033E-002,6.756033E-002,6.756033E-002,6.756033E-002,6.756033E-002,6.756033E-002,
   **   ~~~   ** Air System Named = CENTRAL SYSTEM did not converge for energy
   **   ~~~   ** Check values should be zero. Most Recent values listed first.
   **   ~~~   ** Demand-to-Supply interface energy check value iteration history trace: 1335.380403,1335.380403,1335.380403,1335.380403,1335.380403,1335.380403,1335.380403,1335.380403,1335.380403,1335.380403,
   **   ~~~   ** Supply-to-demand interface deck 1 energy check value iteration history trace: 2306.721830,2306.721830,2306.721830,2306.721830,2306.721830,2306.721830,2306.721830,2306.721830,2306.721830,2306.721830,
   ** Warning ** SimHVAC: Maximum iterations (20) exceeded for all HVAC loops, at ANNUAL, 01/22 15:30 - 15:34
   **   ~~~   ** The solution for one or more of the Air Loop HVAC systems did not appear to converge
   **   ~~~   ** Air System Named = CENTRAL SYSTEM did not converge for mass flow rate
   **   ~~~   ** Check values should be zero. Most Recent values listed first.
   **   ~~~   ** Demand-to-Supply interface mass flow rate check value iteration history trace: 6.977429E-002,6.977429E-002,6.977429E-002,6.977429E-002,6.977429E-002,6.977429E-002,6.977429E-002,6.977429E-002,6.977429E-002,6.977429E-002,
   **   ~~~   ** Supply-to-demand interface deck 1 mass flow rate check value iteration history trace: 6.977429E-002,6.977429E-002,6.977429E-002,6.977429E-002,6.977429E-002,6.977429E-002,6.977429E-002,6.977429E-002,6.977429E-002,6.977429E-002,
   **   ~~~   ** Air System Named = CENTRAL SYSTEM did not converge for energy
   **   ~~~   ** Check values should be zero. Most Recent values listed first.
   **   ~~~   ** Demand-to-Supply interface energy check value iteration history trace: 1376.651584,1376.651584,1376.651584,1376.651584,1376.651584,1376.651584,1376.651583,1376.651583,1376.651583,1376.651583,
   **   ~~~   ** Supply-to-demand interface deck 1 energy check value iteration history trace: 2367.285497,2367.285497,2367.285497,2367.285497,2367.285497,2367.285497,2367.285497,2367.285497,2367.285497,2367.285497,
   ** Warning ** SimHVAC: Maximum iterations (20) exceeded for all HVAC loops, at ANNUAL, 02/26 11:45 - 11:47
   **   ~~~   ** The solution for one or more of the Air Loop HVAC systems did not appear to converge
   **   ~~~   ** Air System Named = CENTRAL SYSTEM did not converge for mass flow rate
   **   ~~~   ** Check values should be zero. Most Recent values listed first.
   **   ~~~   ** Demand-to-Supply interface mass flow rate check value iteration history trace: 5.652973E-002,5.652973E-002,5.652973E-002,5.652973E-002,5.652973E-002,5.652973E-002,5.652973E-002,5.652973E-002,5.652973E-002,5.652973E-002,
   **   ~~~   ** Supply-to-demand interface deck 1 mass flow rate check value iteration history trace: 5.652973E-002,5.652973E-002,5.652973E-002,5.652973E-002,5.652973E-002,5.652973E-002,5.652973E-002,5.652973E-002,5.652973E-002,5.652973E-002,
   **   ~~~   ** Air System Named = CENTRAL SYSTEM did not converge for energy
   **   ~~~   ** Check values should be zero. Most Recent values listed first.
   **   ~~~   ** Demand-to-Supply interface energy check value iteration history trace: 1120.261117,1120.261117,1120.261117,1120.261117,1120.261117,1120.261117,1120.261117,1120.261117,1120.261117,1120.261117,
   **   ~~~   ** Supply-to-demand interface deck 1 energy check value iteration history trace: 1967.842058,1967.842058,1967.842058,1967.842058,1967.842058,1967.842058,1967.842058,1967.842058,1967.842058,1967.842058,
   ** Warning ** SimHVAC: Maximum iterations (20) exceeded for all HVAC loops, at ANNUAL, 03/05 15:20 - 15:25
   **   ~~~   ** The solution for one or more of the Air Loop HVAC systems did not appear to converge
   **   ~~~   ** Air System Named = CENTRAL SYSTEM did not converge for mass flow rate
   **   ~~~   ** Check values should be zero. Most Recent values listed first.
   **   ~~~   ** Demand-to-Supply interface mass flow rate check value iteration history trace: 7.425554E-002,7.425554E-002,7.425554E-002,7.425554E-002,7.425554E-002,7.425554E-002,7.425554E-002,7.425554E-002,7.425554E-002,7.425554E-002,
   **   ~~~   ** Supply-to-demand interface deck 1 mass flow rate check value iteration history trace: 7.425554E-002,7.425554E-002,7.425554E-002,7.425554E-002,7.425554E-002,7.425554E-002,7.425554E-002,7.425554E-002,7.425554E-002,7.425554E-002,
   **   ~~~   ** Air System Named = CENTRAL SYSTEM did not converge for energy
   **   ~~~   ** Check values should be zero. Most Recent values listed first.
   **   ~~~   ** Demand-to-Supply interface energy check value iteration history trace: 1470.744006,1470.744006,1470.744006,1470.744006,1470.744006,1470.744006,1470.744006,1470.744006,1470.744006,1470.744006,
   **   ~~~   ** Supply-to-demand interface deck 1 energy check value iteration history trace: 2548.559134,2548.559134,2548.559134,2548.559134,2548.559134,2548.559133,2548.559133,2548.559133,2548.559133,2548.559133,
   ** Warning ** SimHVAC: Maximum iterations (20) exceeded for all HVAC loops, at ANNUAL, 03/11 11:15 - 11:30
   **   ~~~   ** The solution for one or more of the Air Loop HVAC systems did not appear to converge
   **   ~~~   ** Air System Named = CENTRAL SYSTEM did not converge for mass flow rate
   **   ~~~   ** Check values should be zero. Most Recent values listed first.
   **   ~~~   ** Demand-to-Supply interface mass flow rate check value iteration history trace: 6.421302E-002,6.421302E-002,6.421302E-002,6.421302E-002,6.421302E-002,6.421302E-002,6.421302E-002,6.421302E-002,6.421302E-002,6.421302E-002,
   **   ~~~   ** Supply-to-demand interface deck 1 mass flow rate check value iteration history trace: 6.421302E-002,6.421302E-002,6.421302E-002,6.421302E-002,6.421302E-002,6.421302E-002,6.421302E-002,6.421302E-002,6.421302E-002,6.421302E-002,
   **   ~~~   ** Air System Named = CENTRAL SYSTEM did not converge for energy
   **   ~~~   ** Check values should be zero. Most Recent values listed first.
   **   ~~~   ** Demand-to-Supply interface energy check value iteration history trace: 1272.480671,1272.480671,1272.480671,1272.480671,1272.480671,1272.480671,1272.480671,1272.480671,1272.480671,1272.480670,
   **   ~~~   ** Supply-to-demand interface deck 1 energy check value iteration history trace: 2202.554739,2202.554739,2202.554739,2202.554739,2202.554739,2202.554739,2202.554739,2202.554739,2202.554738,2202.554738,
   ** Warning ** SimHVAC: Maximum iterations (20) exceeded for all HVAC loops, at ANNUAL, 03/30 07:30 - 07:33
   **   ~~~   ** The solution for one or more of the Air Loop HVAC systems did not appear to converge
   **   ~~~   ** Air System Named = CENTRAL SYSTEM did not converge for mass flow rate
   **   ~~~   ** Check values should be zero. Most Recent values listed first.
   **   ~~~   ** Demand-to-Supply interface mass flow rate check value iteration history trace: 7.143614E-002,7.143614E-002,7.143614E-002,7.143614E-002,7.143614E-002,7.143614E-002,7.143614E-002,7.143614E-002,7.143614E-002,7.143614E-002,
   **   ~~~   ** Supply-to-demand interface deck 1 mass flow rate check value iteration history trace: 7.143614E-002,7.143614E-002,7.143614E-002,7.143614E-002,7.143614E-002,7.143614E-002,7.143614E-002,7.143614E-002,7.143614E-002,7.143614E-002,
   **   ~~~   ** Air System Named = CENTRAL SYSTEM did not converge for energy
   **   ~~~   ** Check values should be zero. Most Recent values listed first.
   **   ~~~   ** Demand-to-Supply interface energy check value iteration history trace: 1415.674823,1415.674823,1415.674823,1415.674823,1415.674823,1415.674823,1415.674823,1415.674822,1415.674822,1415.674822,
   **   ~~~   ** Supply-to-demand interface deck 1 energy check value iteration history trace: 2434.902785,2434.902785,2434.902785,2434.902785,2434.902785,2434.902785,2434.902785,2434.902784,2434.902784,2434.902784,
   ** Warning ** SimHVAC: Maximum iterations (20) exceeded for all HVAC loops, at ANNUAL, 04/03 09:15 - 09:20
   **   ~~~   ** The solution for one or more of the Air Loop HVAC systems did not appear to converge
   **   ~~~   ** Air System Named = CENTRAL SYSTEM did not converge for mass flow rate
   **   ~~~   ** Check values should be zero. Most Recent values listed first.
   **   ~~~   ** Demand-to-Supply interface mass flow rate check value iteration history trace: 5.686644E-002,5.686644E-002,5.686644E-002,5.686644E-002,5.686644E-002,5.686644E-002,5.686644E-002,5.686644E-002,5.686644E-002,5.686644E-002,
   **   ~~~   ** Supply-to-demand interface deck 1 mass flow rate check value iteration history trace: 5.686644E-002,5.686644E-002,5.686644E-002,5.686644E-002,5.686644E-002,5.686644E-002,5.686644E-002,5.686644E-002,5.686644E-002,5.686644E-002,
   **   ~~~   ** Air System Named = CENTRAL SYSTEM did not converge for energy
   **   ~~~   ** Check values should be zero. Most Recent values listed first.
   **   ~~~   ** Demand-to-Supply interface energy check value iteration history trace: 1124.202745,1124.202744,1124.202744,1124.202744,1124.202744,1124.202744,1124.202744,1124.202744,1124.202744,1124.202744,
   **   ~~~   ** Supply-to-demand interface deck 1 energy check value iteration history trace: 1955.444522,1955.444522,1955.444522,1955.444522,1955.444522,1955.444522,1955.444522,1955.444522,1955.444522,1955.444522,
   ** Warning ** SimHVAC: Maximum iterations (20) exceeded for all HVAC loops, at ANNUAL, 04/04 19:45 - 19:50
   **   ~~~   ** The solution for one or more of the Air Loop HVAC systems did not appear to converge
   **   ~~~   ** Air System Named = CENTRAL SYSTEM did not converge for mass flow rate
   **   ~~~   ** Check values should be zero. Most Recent values listed first.
   **   ~~~   ** Demand-to-Supply interface mass flow rate check value iteration history trace: 8.968546E-002,8.968546E-002,8.968546E-002,8.968546E-002,8.968546E-002,8.968546E-002,8.968546E-002,8.968546E-002,8.968546E-002,8.968546E-002,
   **   ~~~   ** Supply-to-demand interface deck 1 mass flow rate check value iteration history trace: 8.968546E-002,8.968546E-002,8.968546E-002,8.968546E-002,8.968546E-002,8.968546E-002,8.968546E-002,8.968546E-002,8.968546E-002,8.968546E-002,
   **   ~~~   ** Air System Named = CENTRAL SYSTEM did not converge for energy
   **   ~~~   ** Check values should be zero. Most Recent values listed first.
   **   ~~~   ** Demand-to-Supply interface energy check value iteration history trace: 1772.553916,1772.553916,1772.553916,1772.553916,1772.553916,1772.553916,1772.553916,1772.553916,1772.553915,1772.553915,
   **   ~~~   ** Supply-to-demand interface deck 1 energy check value iteration history trace: 2660.345898,2660.345898,2660.345898,2660.345897,2660.345897,2660.345897,2660.345897,2660.345897,2660.345896,2660.345896,
   ** Warning ** SimHVAC: Maximum iterations (20) exceeded for all HVAC loops, at ANNUAL, 04/22 02:30 - 02:45
   **   ~~~   ** The solution for one or more of the Air Loop HVAC systems did not appear to converge
   **   ~~~   ** Air System Named = CENTRAL SYSTEM did not converge for mass flow rate
   **   ~~~   ** Check values should be zero. Most Recent values listed first.
   **   ~~~   ** Demand-to-Supply interface mass flow rate check value iteration history trace: 6.357315E-002,6.357315E-002,6.357315E-002,6.357315E-002,6.357315E-002,6.357315E-002,6.357315E-002,6.357315E-002,6.357315E-002,6.357315E-002,
   **   ~~~   ** Supply-to-demand interface deck 1 mass flow rate check value iteration history trace: 6.357315E-002,6.357315E-002,6.357315E-002,6.357315E-002,6.357315E-002,6.357315E-002,6.357315E-002,6.357315E-002,6.357315E-002,6.357315E-002,
   **   ~~~   ** Air System Named = CENTRAL SYSTEM did not converge for energy
   **   ~~~   ** Check values should be zero. Most Recent values listed first.
   **   ~~~   ** Demand-to-Supply interface energy check value iteration history trace: 1200.778655,1200.778655,1200.778654,1200.778654,1200.778654,1200.778654,1200.778654,1200.778654,1200.778654,1200.778654,
   **   ~~~   ** Supply-to-demand interface deck 1 energy check value iteration history trace: 2054.403229,2054.403229,2054.403229,2054.403229,2054.403229,2054.403229,2054.403229,2054.403228,2054.403228,2054.403228,
   ** Warning ** SimHVAC: Maximum iterations (20) exceeded for all HVAC loops, at ANNUAL, 04/26 09:30 - 09:45
   **   ~~~   ** The solution for one or more of the Air Loop HVAC systems did not appear to converge
   **   ~~~   ** Air System Named = CENTRAL SYSTEM did not converge for mass flow rate
   **   ~~~   ** Check values should be zero. Most Recent values listed first.
   **   ~~~   ** Demand-to-Supply interface mass flow rate check value iteration history trace: 5.012687E-002,5.012687E-002,5.012687E-002,5.012687E-002,5.012687E-002,5.012687E-002,5.012687E-002,5.012687E-002,5.012687E-002,5.012687E-002,
   **   ~~~   ** Supply-to-demand interface deck 1 mass flow rate check value iteration history trace: 5.012687E-002,5.012687E-002,5.012687E-002,5.012687E-002,5.012687E-002,5.012687E-002,5.012687E-002,5.012687E-002,5.012687E-002,5.012687E-002,
   **   ~~~   ** Air System Named = CENTRAL SYSTEM did not converge for energy
   **   ~~~   ** Check values should be zero. Most Recent values listed first.
   **   ~~~   ** Demand-to-Supply interface energy check value iteration history trace: 992.831586,992.831586,992.831586,992.831586,992.831586,992.831586,992.831586,992.831586,992.831586,992.831586,
   **   ~~~   ** Supply-to-demand interface deck 1 energy check value iteration history trace: 1787.754523,1787.754523,1787.754523,1787.754523,1787.754523,1787.754523,1787.754523,1787.754522,1787.754522,1787.754522,
   ** Warning ** SimHVAC: Maximum iterations (20) exceeded for all HVAC loops, at ANNUAL, 04/27 01:53 - 02:00
   **   ~~~   ** The solution for one or more of the Air Loop HVAC systems did not appear to converge
   **   ~~~   ** Air System Named = CENTRAL SYSTEM did not converge for mass flow rate
   **   ~~~   ** Check values should be zero. Most Recent values listed first.
   **   ~~~   ** Demand-to-Supply interface mass flow rate check value iteration history trace: 4.682666E-002,4.682666E-002,4.682666E-002,4.682666E-002,4.682666E-002,4.682666E-002,4.682666E-002,4.682666E-002,4.682666E-002,4.682666E-002,
   **   ~~~   ** Supply-to-demand interface deck 1 mass flow rate check value iteration history trace: 4.682666E-002,4.682666E-002,4.682666E-002,4.682666E-002,4.682666E-002,4.682666E-002,4.682666E-002,4.682666E-002,4.682666E-002,4.682666E-002,
   **   ~~~   ** Air System Named = CENTRAL SYSTEM did not converge for energy
   **   ~~~   ** Check values should be zero. Most Recent values listed first.
   **   ~~~   ** Demand-to-Supply interface energy check value iteration history trace: 873.740070,873.740069,873.740069,873.740069,873.740069,873.740069,873.740069,873.740069,873.740069,873.740069,
   **   ~~~   ** Supply-to-demand interface deck 1 energy check value iteration history trace: 1556.428286,1556.428286,1556.428286,1556.428286,1556.428286,1556.428286,1556.428286,1556.428286,1556.428286,1556.428286,
   ** Warning ** SimHVAC: Maximum iterations (20) exceeded for all HVAC loops, at ANNUAL, 04/29 06:53 - 06:56
   **   ~~~   ** The solution for one or more of the Air Loop HVAC systems did not appear to converge
   **   ~~~   ** Air System Named = CENTRAL SYSTEM did not converge for mass flow rate
   **   ~~~   ** Check values should be zero. Most Recent values listed first.
   **   ~~~   ** Demand-to-Supply interface mass flow rate check value iteration history trace: 5.894226E-002,5.894226E-002,5.894226E-002,5.894226E-002,5.894226E-002,5.894226E-002,5.894226E-002,5.894226E-002,5.894226E-002,5.894226E-002,
   **   ~~~   ** Supply-to-demand interface deck 1 mass flow rate check value iteration history trace: 5.894226E-002,5.894226E-002,5.894226E-002,5.894226E-002,5.894226E-002,5.894226E-002,5.894226E-002,5.894226E-002,5.894226E-002,5.894226E-002,
   **   ~~~   ** Air System Named = CENTRAL SYSTEM did not converge for energy
   **   ~~~   ** Check values should be zero. Most Recent values listed first.
   **   ~~~   ** Demand-to-Supply interface energy check value iteration history trace: 1168.348953,1168.348953,1168.348953,1168.348953,1168.348953,1168.348953,1168.348953,1168.348953,1168.348953,1168.348953,
   **   ~~~   ** Supply-to-demand interface deck 1 energy check value iteration history trace: 2015.796881,2015.796881,2015.796881,2015.796881,2015.796881,2015.796880,2015.796880,2015.796880,2015.796880,2015.796880,
   ** Warning ** SimHVAC: Maximum iterations (20) exceeded for all HVAC loops, at ANNUAL, 05/26 05:04 - 05:08
   **   ~~~   ** The solution for one or more of the Air Loop HVAC systems did not appear to converge
   **   ~~~   ** Air System Named = CENTRAL SYSTEM did not converge for mass flow rate
   **   ~~~   ** Check values should be zero. Most Recent values listed first.
   **   ~~~   ** Demand-to-Supply interface mass flow rate check value iteration history trace: 5.275331E-002,5.275331E-002,5.275331E-002,5.275331E-002,5.275331E-002,5.275331E-002,5.275331E-002,5.275331E-002,5.275331E-002,5.275331E-002,
   **   ~~~   ** Supply-to-demand interface deck 1 mass flow rate check value iteration history trace: 5.275331E-002,5.275331E-002,5.275331E-002,5.275331E-002,5.275331E-002,5.275331E-002,5.275331E-002,5.275331E-002,5.275331E-002,5.275331E-002,
   **   ~~~   ** Air System Named = CENTRAL SYSTEM did not converge for energy
   **   ~~~   ** Check values should be zero. Most Recent values listed first.
   **   ~~~   ** Demand-to-Supply interface energy check value iteration history trace: 1027.700485,1027.700485,1027.700485,1027.700484,1027.700484,1027.700484,1027.700484,1027.700484,1027.700484,1027.700484,
   **   ~~~   ** Supply-to-demand interface deck 1 energy check value iteration history trace: 1788.344534,1788.344534,1788.344534,1788.344534,1788.344534,1788.344534,1788.344533,1788.344533,1788.344533,1788.344533,
   ** Warning ** SimHVAC: Maximum iterations (20) exceeded for all HVAC loops, at ANNUAL, 05/29 08:25 - 08:30
   **   ~~~   ** The solution for one or more of the Air Loop HVAC systems did not appear to converge
   **   ~~~   ** Air System Named = CENTRAL SYSTEM did not converge for mass flow rate
   **   ~~~   ** Check values should be zero. Most Recent values listed first.
   **   ~~~   ** Demand-to-Supply interface mass flow rate check value iteration history trace: 5.379586E-002,5.379586E-002,5.379586E-002,5.379586E-002,5.379586E-002,5.379586E-002,5.379586E-002,5.379586E-002,5.379586E-002,5.379586E-002,
   **   ~~~   ** Supply-to-demand interface deck 1 mass flow rate check value iteration history trace: 5.379586E-002,5.379586E-002,5.379586E-002,5.379586E-002,5.379586E-002,5.379586E-002,5.379586E-002,5.379586E-002,5.379586E-002,5.379586E-002,
   **   ~~~   ** Air System Named = CENTRAL SYSTEM did not converge for energy
   **   ~~~   ** Check values should be zero. Most Recent values listed first.
   **   ~~~   ** Demand-to-Supply interface energy check value iteration history trace: 1060.675038,1060.675037,1060.675037,1060.675037,1060.675037,1060.675037,1060.675037,1060.675037,1060.675037,1060.675037,
   **   ~~~   ** Supply-to-demand interface deck 1 energy check value iteration history trace: 1902.896096,1902.896096,1902.896096,1902.896095,1902.896095,1902.896095,1902.896095,1902.896095,1902.896095,1902.896095,
   ************* Simulation Error Summary *************
   ** Warning ** The following Report Variables were requested but not generated -- check.rdd file
   **   ~~~   ** Either the IDF did not contain these elements, the variable name is misspelled,
   **   ~~~   ** or the requested variable is an advanced output which requires Output : Diagnostics, DisplayAdvancedReportVariables;
   ************* Key=*, VarName=BASEBOARD TOTAL HEATING ENERGY, Frequency=
   ************* Key=*, VarName=WATER HEATER NATURALGAS ENERGY, Frequency=
   ************* Key=*, VarName=COOLING COIL TOTAL HEATING ENERGY, Frequency=
   ************* There are 34 unused schedules in input.
   ************* There are 388 unused week schedules in input.
   ************* There are 396 unused day schedules in input.
   ************* Use Output:Diagnostics,DisplayUnusedSchedules; to see them.
   *************
   ************* ===== Recurring Error Summary =====
   ************* The following recurring error messages occurred.
   *************
   *************  ** Warning ** "TOTAL HOT WATER LOAD" - Target water temperature should be less than or equal to the hot water temperature error continues...
   *************  **   ~~~   **   This error occurred 52097 total times;
   *************  **   ~~~   **   during Warmup 0 times;
   *************  **   ~~~   **   during Sizing 0 times.
   *************  **   ~~~   **   Max=6.538757  Min=1.932703E-005
   *************
   *************  ** Warning ** SimHVAC: Exceeding Maximum iterations for all HVAC loops, during ANNUAL continues
   *************  **   ~~~   **   This error occurred 11 total times;
   *************  **   ~~~   **   during Warmup 0 times;
   *************  **   ~~~   **   during Sizing 0 times.
   *************
   *************
   ************* ===== Final Error Summary =====
   ************* The following error categories occurred.  Consider correcting or noting.
   ************* Nominally Unused Constructions
   ************* ..The nominally unused constructions warning is provided to alert you to potential conditions that can cause
   ************* ..extra time during simulation. Each construction is calculated by the algorithm indicated in the HeatBalanceAlgorithm
   ************* ..object. You may remove the constructions indicated (when you use the DisplayExtraWarnings option).
   *************
   ************* EnergyPlus Warmup Error Summary. During Warmup: 1 Warning; 0 Severe Errors.
   ************* EnergyPlus Sizing Error Summary. During Sizing: 4 Warning; 0 Severe Errors.
   ************* EnergyPlus Completed Successfully-- 52140 Warning; 0 Severe Errors; Elapsed Time=00hr 01min 17.62sec
