Program Version,EnergyPlus, Version 22.2.0-c249759bad, YMD=2023.09.01 14:50,
   ************* Beginning Zone Sizing Calculations
   ** Warning ** ProcessScheduleInput: Schedule:Constant="ALWAYS ON DISCRETE", Schedule Type Limits Name="ONOFF" not found -- will not be validated
   ** Warning ** Foundation:Kiva="KIVA FOUNDATION", no Interior Horizontal Insulation Material Name defined
   **   ~~~   ** Interior Horizontal Insulation Depth will not be used.
   ** Warning ** CheckUsedConstructions: There are 15 nominally unused constructions in input.
   **   ~~~   ** Each Unused construction is shown.
   ************* Construction=INTERIOR FLOOR
   ************* Construction=INTERIOR WINDOW
   ************* Construction=EXTERIOR DOOR
   ************* Construction=INTERIOR DOOR
   ************* Construction=GABLE CONSTRUCTION
   ************* Construction=CRAWL_FLOOR
   ************* Construction=INSULATED PIPE
   ************* Construction=PLAIN PIPE
   ************* Construction=TDD PIPE
   ************* Construction=TDD DOME
   ************* Construction=TDD DIFFUSER
   ************* Construction=CRAWL WALL
   ************* Construction=CEILING-FLOOR-LAYER
   ************* Construction=SLAB CONSTRUCTION W FULL R10 INSULATION
   ************* Construction=SLAB CONSTRUCTION W FULL R5 INSULATION
   ** Warning ** GetDXCoils: Coil:Heating:DX:SingleSpeed="DX_HEATING_COIL" curve values
   **   ~~~   ** ... Defrost Energy Input Ratio Function of Temperature Curve Name = DEFROSTEIR output is not equal to 1.0 (+ or - 10%) at rated conditions.
   **   ~~~   ** ... Curve output at rated conditions = 0.152
   ************* Beginning System Sizing Calculations
   ************* Beginning Plant Sizing Calculations
   ** Warning ** SizeDXCoil Coil:Cooling:DX:SingleSpeed DX_COOLING_COIL
   **   ~~~   ** ...Gross Rated Total Cooling Capacity [W] will be limited by the maximum rated volume flow per rated total capacity ratio.
   **   ~~~   ** ...DX coil volume flow rate ( m3/s ) = 0.500689
   **   ~~~   ** ...Requested capacity ( W ) = 6490.584
   **   ~~~   ** ...Requested flow/capacity ratio ( m3/s/W ) = 7.714E-005
   **   ~~~   ** ...Maximum flow/capacity ratio ( m3/s/W ) = 6.041E-005
   **   ~~~   ** ...Adjusted capacity ( W ) = 8288.181
   ** Warning ** Coil:WaterHeating:AirToWaterHeatPump:Wrapped "HEAT PUMP WATER HEATER EVAPORATOR": Rated air volume flow rate per watt of rated total water heating capacity is out of range
   **   ~~~   ** Min Rated Vol Flow Per Watt=[4.027E-005], Rated Vol Flow Per Watt=[1.386E-004], Max Rated Vol Flow Per Watt=[8.056E-005]. See Input-Output Reference Manual for valid range.
   ** Warning ** Water heater = WATER HEATER TANK:  Recovery Efficiency and Energy Factor could not be calculated during the test for standard ratings
   **   ~~~   ** Setpoint was never recovered and/or heater never turned on
   ** Warning ** Check input. Pump nominal power or motor efficiency is set to 0, for pump=MAINS PRESSURE
   ** Warning ** Output:Meter: invalid Key Name="ELECTRIC_RANGE:INTERIOREQUIPMENT:ELECTRICITY" - not found.
   ** Warning ** Output:Meter: invalid Key Name="ELECTRIC_DRYER:INTERIOREQUIPMENT:ELECTRICITY" - not found.
   ** Warning ** Output:Meter: invalid Key Name="HEATRECOVERY:ELECTRICITY" - not found.
   ** Warning ** Output:Meter: invalid Key Name="HEATING:NATURALGAS" - not found.
   ** Warning ** Output:Meter: invalid Key Name="WATERSYSTEMS:NATURALGAS" - not found.
   ** Warning ** Output:Meter: invalid Key Name="PROPANE:FACILITY" - not found.
   ** Warning ** Output:Meter: invalid Key Name="HEATING:PROPANE" - not found.
   ************* Testing Individual Branch Integrity
   ************* All Branches passed integrity testing
   ************* Testing Individual Supply Air Path Integrity
   ************* All Supply Air Paths passed integrity testing
   ************* Testing Individual Return Air Path Integrity
   ************* All Return Air Paths passed integrity testing
   ************* No node connection errors were found.
   ************* Beginning Simulation
   ** Warning ** AirflowNetwork::Solver::validate_distribution: Heat pump water heater is simulated along with an AirflowNetwork but is not included in the AirflowNetwork.
   ** Warning ** CalcEquipmentFlowRates: "TOTAL HOT WATER LOAD" - Target water temperature is greater than the hot water temperature by (1.66 C)
   **   ~~~   **  Environment=EXTREME_WINTER, at Simulation time=12/15 06:00 - 06:15
   **   ~~~   ** ...target water temperature     = 53.33 C
   **   ~~~   ** ...hot water temperature        = 51.68 C
   **   ~~~   ** ...Target water temperature should be less than or equal to the hot water temperature. Verify temperature setpoints and schedules.
   ** Warning ** SimHVAC: Maximum iterations (20) exceeded for all HVAC loops, at ANNUAL, 03/05 18:25 - 18:30
   **   ~~~   ** The solution for one or more of the Air Loop HVAC systems did not appear to converge
   **   ~~~   ** Air System Named = CENTRAL SYSTEM did not converge for mass flow rate
   **   ~~~   ** Check values should be zero. Most Recent values listed first.
   **   ~~~   ** Demand-to-Supply interface mass flow rate check value iteration history trace: 6.984881E-002,6.984881E-002,6.984881E-002,6.984881E-002,6.984881E-002,6.984881E-002,6.984881E-002,6.984881E-002,6.984881E-002,6.984881E-002,
   **   ~~~   ** Supply-to-demand interface deck 1 mass flow rate check value iteration history trace: 6.984881E-002,6.984881E-002,6.984881E-002,6.984881E-002,6.984881E-002,6.984881E-002,6.984881E-002,6.984881E-002,6.984881E-002,6.984881E-002,
   **   ~~~   ** Air System Named = CENTRAL SYSTEM did not converge for energy
   **   ~~~   ** Check values should be zero. Most Recent values listed first.
   **   ~~~   ** Demand-to-Supply interface energy check value iteration history trace: 1377.076697,1377.076697,1377.076696,1377.076696,1377.076696,1377.076696,1377.076696,1377.076696,1377.076696,1377.076696,
   **   ~~~   ** Supply-to-demand interface deck 1 energy check value iteration history trace: 2570.077021,2570.077021,2570.077021,2570.077021,2570.077021,2570.077021,2570.077021,2570.077020,2570.077020,2570.077020,
   ** Warning ** SimHVAC: Maximum iterations (20) exceeded for all HVAC loops, at ANNUAL, 03/12 11:04 - 11:08
   **   ~~~   ** The solution for one or more of the Air Loop HVAC systems did not appear to converge
   **   ~~~   ** Air System Named = CENTRAL SYSTEM did not converge for mass flow rate
   **   ~~~   ** Check values should be zero. Most Recent values listed first.
   **   ~~~   ** Demand-to-Supply interface mass flow rate check value iteration history trace: 9.246452E-002,9.246452E-002,9.246452E-002,9.246452E-002,9.246452E-002,9.246452E-002,9.246452E-002,9.246452E-002,9.246452E-002,9.246452E-002,
   **   ~~~   ** Supply-to-demand interface deck 1 mass flow rate check value iteration history trace: 9.246452E-002,9.246452E-002,9.246452E-002,9.246452E-002,9.246452E-002,9.246452E-002,9.246452E-002,9.246452E-002,9.246452E-002,9.246452E-002,
   **   ~~~   ** Air System Named = CENTRAL SYSTEM did not converge for energy
   **   ~~~   ** Check values should be zero. Most Recent values listed first.
   **   ~~~   ** Demand-to-Supply interface energy check value iteration history trace: 1832.354127,1832.354127,1832.354127,1832.354127,1832.354127,1832.354127,1832.354127,1832.354127,1832.354126,1832.354126,
   **   ~~~   ** Supply-to-demand interface deck 1 energy check value iteration history trace: 2976.915192,2976.915192,2976.915192,2976.915192,2976.915191,2976.915191,2976.915191,2976.915191,2976.915191,2976.915191,
   ** Warning ** SimHVAC: Maximum iterations (20) exceeded for all HVAC loops, at ANNUAL, 03/26 22:30 - 22:45
   **   ~~~   ** The solution for one or more of the Air Loop HVAC systems did not appear to converge
   **   ~~~   ** Air System Named = CENTRAL SYSTEM did not converge for mass flow rate
   **   ~~~   ** Check values should be zero. Most Recent values listed first.
   **   ~~~   ** Demand-to-Supply interface mass flow rate check value iteration history trace: 8.001153E-002,8.001153E-002,8.001153E-002,8.001153E-002,8.001153E-002,8.001153E-002,8.001153E-002,8.001153E-002,8.001153E-002,8.001153E-002,
   **   ~~~   ** Supply-to-demand interface deck 1 mass flow rate check value iteration history trace: 8.001153E-002,8.001153E-002,8.001153E-002,8.001153E-002,8.001153E-002,8.001153E-002,8.001153E-002,8.001153E-002,8.001153E-002,8.001153E-002,
   **   ~~~   ** Air System Named = CENTRAL SYSTEM did not converge for energy
   **   ~~~   ** Check values should be zero. Most Recent values listed first.
   **   ~~~   ** Demand-to-Supply interface energy check value iteration history trace: 1481.073462,1481.073462,1481.073462,1481.073462,1481.073462,1481.073462,1481.073462,1481.073462,1481.073462,1481.073462,
   **   ~~~   ** Supply-to-demand interface deck 1 energy check value iteration history trace: 2348.073236,2348.073236,2348.073236,2348.073236,2348.073236,2348.073236,2348.073236,2348.073236,2348.073236,2348.073235,
   ** Warning ** SimHVAC: Maximum iterations (20) exceeded for all HVAC loops, at ANNUAL, 05/08 08:21 - 08:24
   **   ~~~   ** The solution for one or more of the Air Loop HVAC systems did not appear to converge
   **   ~~~   ** Air System Named = CENTRAL SYSTEM did not converge for mass flow rate
   **   ~~~   ** Check values should be zero. Most Recent values listed first.
   **   ~~~   ** Demand-to-Supply interface mass flow rate check value iteration history trace: 5.659529E-002,5.659529E-002,5.659529E-002,5.659529E-002,5.659529E-002,5.659529E-002,5.659529E-002,5.659529E-002,5.659529E-002,5.659529E-002,
   **   ~~~   ** Supply-to-demand interface deck 1 mass flow rate check value iteration history trace: 5.659529E-002,5.659529E-002,5.659529E-002,5.659529E-002,5.659529E-002,5.659529E-002,5.659529E-002,5.659529E-002,5.659529E-002,5.659529E-002,
   **   ~~~   ** Air System Named = CENTRAL SYSTEM did not converge for energy
   **   ~~~   ** Check values should be zero. Most Recent values listed first.
   **   ~~~   ** Demand-to-Supply interface energy check value iteration history trace: 1121.562685,1121.562685,1121.562685,1121.562685,1121.562685,1121.562685,1121.562685,1121.562685,1121.562685,1121.562685,
   **   ~~~   ** Supply-to-demand interface deck 1 energy check value iteration history trace: 2058.378249,2058.378249,2058.378249,2058.378249,2058.378249,2058.378249,2058.378249,2058.378249,2058.378248,2058.378248,
   ** Warning ** SimHVAC: Maximum iterations (20) exceeded for all HVAC loops, at ANNUAL, 05/10 07:46 - 07:48
   **   ~~~   ** The solution for one or more of the Air Loop HVAC systems did not appear to converge
   **   ~~~   ** Air System Named = CENTRAL SYSTEM did not converge for mass flow rate
   **   ~~~   ** Check values should be zero. Most Recent values listed first.
   **   ~~~   ** Demand-to-Supply interface mass flow rate check value iteration history trace: 6.244384E-002,6.244384E-002,6.244384E-002,6.244384E-002,6.244384E-002,6.244384E-002,6.244384E-002,6.244384E-002,6.244384E-002,6.244384E-002,
   **   ~~~   ** Supply-to-demand interface deck 1 mass flow rate check value iteration history trace: 6.244384E-002,6.244384E-002,6.244384E-002,6.244384E-002,6.244384E-002,6.244384E-002,6.244384E-002,6.244384E-002,6.244384E-002,6.244384E-002,
   **   ~~~   ** Air System Named = CENTRAL SYSTEM did not converge for energy
   **   ~~~   ** Check values should be zero. Most Recent values listed first.
   **   ~~~   ** Demand-to-Supply interface energy check value iteration history trace: 1232.791525,1232.791525,1232.791525,1232.791525,1232.791525,1232.791525,1232.791525,1232.791525,1232.791525,1232.791525,
   **   ~~~   ** Supply-to-demand interface deck 1 energy check value iteration history trace: 2369.698442,2369.698442,2369.698442,2369.698442,2369.698442,2369.698442,2369.698442,2369.698442,2369.698442,2369.698442,
   ** Warning ** SimHVAC: Maximum iterations (20) exceeded for all HVAC loops, at ANNUAL, 05/24 06:15 - 06:22
   **   ~~~   ** The solution for one or more of the Air Loop HVAC systems did not appear to converge
   **   ~~~   ** Air System Named = CENTRAL SYSTEM did not converge for mass flow rate
   **   ~~~   ** Check values should be zero. Most Recent values listed first.
   **   ~~~   ** Demand-to-Supply interface mass flow rate check value iteration history trace: 6.612862E-002,6.612862E-002,6.612862E-002,6.612862E-002,6.612862E-002,6.612862E-002,6.612862E-002,6.612862E-002,6.612862E-002,6.612862E-002,
   **   ~~~   ** Supply-to-demand interface deck 1 mass flow rate check value iteration history trace: 6.612862E-002,6.612862E-002,6.612862E-002,6.612862E-002,6.612862E-002,6.612862E-002,6.612862E-002,6.612862E-002,6.612862E-002,6.612862E-002,
   **   ~~~   ** Air System Named = CENTRAL SYSTEM did not converge for energy
   **   ~~~   ** Check values should be zero. Most Recent values listed first.
   **   ~~~   ** Demand-to-Supply interface energy check value iteration history trace: 1310.259255,1310.259255,1310.259255,1310.259255,1310.259255,1310.259255,1310.259255,1310.259255,1310.259255,1310.259255,
   **   ~~~   ** Supply-to-demand interface deck 1 energy check value iteration history trace: 2364.305477,2364.305477,2364.305477,2364.305477,2364.305477,2364.305477,2364.305477,2364.305477,2364.305477,2364.305476,
   ** Warning ** SimHVAC: Maximum iterations (20) exceeded for all HVAC loops, at ANNUAL, 09/25 19:05 - 19:10
   **   ~~~   ** The solution for one or more of the Air Loop HVAC systems did not appear to converge
   **   ~~~   ** Air System Named = CENTRAL SYSTEM did not converge for mass flow rate
   **   ~~~   ** Check values should be zero. Most Recent values listed first.
   **   ~~~   ** Demand-to-Supply interface mass flow rate check value iteration history trace: 0.173243,0.173243,0.173243,0.173243,0.173243,0.173243,0.173243,0.173243,0.173243,0.173243,
   **   ~~~   ** Supply-to-demand interface deck 1 mass flow rate check value iteration history trace: 0.173243,0.173243,0.173243,0.173243,0.173243,0.173243,0.173243,0.173243,0.173243,0.173243,
   **   ~~~   ** Air System Named = CENTRAL SYSTEM did not converge for energy
   **   ~~~   ** Check values should be zero. Most Recent values listed first.
   **   ~~~   ** Demand-to-Supply interface energy check value iteration history trace: 4111.415401,4111.415402,4111.415402,4111.415402,4111.415402,4111.415402,4111.415403,4111.415403,4111.415403,4111.415403,
   **   ~~~   ** Supply-to-demand interface deck 1 energy check value iteration history trace: 1811.370828,1811.370828,1811.370828,1811.370828,1811.370828,1811.370828,1811.370828,1811.370829,1811.370829,1811.370829,
   ** Warning ** SimHVAC: Maximum iterations (20) exceeded for all HVAC loops, at ANNUAL, 09/25 20:35 - 20:40
   **   ~~~   ** The solution for one or more of the Air Loop HVAC systems did not appear to converge
   **   ~~~   ** Air System Named = CENTRAL SYSTEM did not converge for mass flow rate
   **   ~~~   ** Check values should be zero. Most Recent values listed first.
   **   ~~~   ** Demand-to-Supply interface mass flow rate check value iteration history trace: 0.124847,0.124847,0.124847,0.124847,0.124847,0.124847,0.124847,0.124847,0.124847,0.124847,
   **   ~~~   ** Supply-to-demand interface deck 1 mass flow rate check value iteration history trace: 0.124847,0.124847,0.124847,0.124847,0.124847,0.124847,0.124847,0.124847,0.124847,0.124847,
   **   ~~~   ** Air System Named = CENTRAL SYSTEM did not converge for energy
   **   ~~~   ** Check values should be zero. Most Recent values listed first.
   **   ~~~   ** Demand-to-Supply interface energy check value iteration history trace: 2940.347590,2940.347590,2940.347590,2940.347591,2940.347591,2940.347591,2940.347592,2940.347592,2940.347593,2940.347593,
   **   ~~~   ** Supply-to-demand interface deck 1 energy check value iteration history trace: 1274.941193,1274.941193,1274.941194,1274.941194,1274.941194,1274.941194,1274.941194,1274.941194,1274.941194,1274.941195,
   ** Warning ** SimHVAC: Maximum iterations (20) exceeded for all HVAC loops, at ANNUAL, 09/28 07:51 - 07:54
   **   ~~~   ** The solution for one or more of the Air Loop HVAC systems did not appear to converge
   **   ~~~   ** Air System Named = CENTRAL SYSTEM did not converge for mass flow rate
   **   ~~~   ** Check values should be zero. Most Recent values listed first.
   **   ~~~   ** Demand-to-Supply interface mass flow rate check value iteration history trace: 5.816177E-002,5.816177E-002,5.816177E-002,5.816177E-002,5.816177E-002,5.816177E-002,5.816177E-002,5.816177E-002,5.816177E-002,5.816177E-002,
   **   ~~~   ** Supply-to-demand interface deck 1 mass flow rate check value iteration history trace: 5.816177E-002,5.816177E-002,5.816177E-002,5.816177E-002,5.816177E-002,5.816177E-002,5.816177E-002,5.816177E-002,5.816177E-002,5.816177E-002,
   **   ~~~   ** Air System Named = CENTRAL SYSTEM did not converge for energy
   **   ~~~   ** Check values should be zero. Most Recent values listed first.
   **   ~~~   ** Demand-to-Supply interface energy check value iteration history trace: 1144.531408,1144.531408,1144.531408,1144.531408,1144.531407,1144.531407,1144.531407,1144.531407,1144.531407,1144.531407,
   **   ~~~   ** Supply-to-demand interface deck 1 energy check value iteration history trace: 2133.282379,2133.282379,2133.282379,2133.282379,2133.282379,2133.282379,2133.282379,2133.282379,2133.282379,2133.282379,
   ** Warning ** SimHVAC: Maximum iterations (20) exceeded for all HVAC loops, at ANNUAL, 10/01 12:00 - 12:15
   **   ~~~   ** The solution for one or more of the Air Loop HVAC systems did not appear to converge
   **   ~~~   ** Air System Named = CENTRAL SYSTEM did not converge for mass flow rate
   **   ~~~   ** Check values should be zero. Most Recent values listed first.
   **   ~~~   ** Demand-to-Supply interface mass flow rate check value iteration history trace: 2.037081E-002,2.037081E-002,2.037081E-002,2.037081E-002,2.037081E-002,2.037081E-002,2.037081E-002,2.037081E-002,2.037081E-002,2.037081E-002,
   **   ~~~   ** Supply-to-demand interface deck 1 mass flow rate check value iteration history trace: 2.037081E-002,2.037081E-002,2.037081E-002,2.037081E-002,2.037081E-002,2.037081E-002,2.037081E-002,2.037081E-002,2.037081E-002,2.037081E-002,
   **   ~~~   ** Air System Named = CENTRAL SYSTEM did not converge for energy
   **   ~~~   ** Check values should be zero. Most Recent values listed first.
   **   ~~~   ** Demand-to-Supply interface energy check value iteration history trace: 472.457011,472.457011,472.457011,472.457011,472.457012,472.457012,472.457012,472.457012,472.457012,472.457012,
   **   ~~~   ** Supply-to-demand interface deck 1 energy check value iteration history trace: 187.559299,187.559299,187.559299,187.559299,187.559299,187.559299,187.559299,187.559299,187.559299,187.559299,
   ** Warning ** SimHVAC: Maximum iterations (20) exceeded for all HVAC loops, at ANNUAL, 11/06 19:00 - 19:15
   **   ~~~   ** The solution for one or more of the Air Loop HVAC systems did not appear to converge
   **   ~~~   ** Air System Named = CENTRAL SYSTEM did not converge for energy
   **   ~~~   ** Check values should be zero. Most Recent values listed first.
   **   ~~~   ** Demand-to-Supply interface energy check value iteration history trace: 97.991164,97.991164,97.991164,97.991164,97.991164,97.991164,97.991164,97.991164,97.991164,97.991164,
   **   ~~~   ** Supply-to-demand interface deck 1 energy check value iteration history trace: 174.817898,174.817898,174.817898,174.817898,174.817898,174.817898,174.817898,174.817898,174.817898,174.817898,
   ** Warning ** SimHVAC: Maximum iterations (20) exceeded for all HVAC loops, at ANNUAL, 11/24 16:00 - 16:05
   **   ~~~   ** The solution for one or more of the Air Loop HVAC systems did not appear to converge
   **   ~~~   ** Air System Named = CENTRAL SYSTEM did not converge for mass flow rate
   **   ~~~   ** Check values should be zero. Most Recent values listed first.
   **   ~~~   ** Demand-to-Supply interface mass flow rate check value iteration history trace: 7.781177E-002,7.781177E-002,7.781177E-002,7.781177E-002,7.781177E-002,7.781177E-002,7.781177E-002,7.781177E-002,7.781177E-002,7.781177E-002,
   **   ~~~   ** Supply-to-demand interface deck 1 mass flow rate check value iteration history trace: 7.781177E-002,7.781177E-002,7.781177E-002,7.781177E-002,7.781177E-002,7.781177E-002,7.781177E-002,7.781177E-002,7.781177E-002,7.781177E-002,
   **   ~~~   ** Air System Named = CENTRAL SYSTEM did not converge for energy
   **   ~~~   ** Check values should be zero. Most Recent values listed first.
   **   ~~~   ** Demand-to-Supply interface energy check value iteration history trace: 1526.940111,1526.940111,1526.940111,1526.940111,1526.940110,1526.940110,1526.940110,1526.940110,1526.940110,1526.940110,
   **   ~~~   ** Supply-to-demand interface deck 1 energy check value iteration history trace: 2510.896211,2510.896211,2510.896211,2510.896211,2510.896211,2510.896211,2510.896211,2510.896210,2510.896210,2510.896210,
   ** Warning ** SimHVAC: Maximum iterations (20) exceeded for all HVAC loops, at ANNUAL, 11/27 19:04 - 19:08
   **   ~~~   ** The solution for one or more of the Air Loop HVAC systems did not appear to converge
   **   ~~~   ** Air System Named = CENTRAL SYSTEM did not converge for mass flow rate
   **   ~~~   ** Check values should be zero. Most Recent values listed first.
   **   ~~~   ** Demand-to-Supply interface mass flow rate check value iteration history trace: 8.764747E-002,8.764747E-002,8.764747E-002,8.764747E-002,8.764747E-002,8.764747E-002,8.764747E-002,8.764747E-002,8.764747E-002,8.764747E-002,
   **   ~~~   ** Supply-to-demand interface deck 1 mass flow rate check value iteration history trace: 8.764747E-002,8.764747E-002,8.764747E-002,8.764747E-002,8.764747E-002,8.764747E-002,8.764747E-002,8.764747E-002,8.764747E-002,8.764747E-002,
   **   ~~~   ** Air System Named = CENTRAL SYSTEM did not converge for energy
   **   ~~~   ** Check values should be zero. Most Recent values listed first.
   **   ~~~   ** Demand-to-Supply interface energy check value iteration history trace: 1731.065592,1731.065592,1731.065591,1731.065591,1731.065591,1731.065591,1731.065591,1731.065591,1731.065591,1731.065591,
   **   ~~~   ** Supply-to-demand interface deck 1 energy check value iteration history trace: 2745.689294,2745.689293,2745.689293,2745.689293,2745.689293,2745.689293,2745.689293,2745.689293,2745.689292,2745.689292,
   ************* Simulation Error Summary *************
   ** Warning ** The following Report Variables were requested but not generated -- check.rdd file
   **   ~~~   ** Either the IDF did not contain these elements, the variable name is misspelled,
   **   ~~~   ** or the requested variable is an advanced output which requires Output : Diagnostics, DisplayAdvancedReportVariables;
   ************* Key=*, VarName=BASEBOARD TOTAL HEATING ENERGY, Frequency=
   ************* Key=*, VarName=WATER HEATER NATURALGAS ENERGY, Frequency=
   ************* Key=*, VarName=COOLING COIL TOTAL HEATING ENERGY, Frequency=
   ************* There are 34 unused schedules in input.
   ************* There are 388 unused week schedules in input.
   ************* There are 396 unused day schedules in input.
   ************* Use Output:Diagnostics,DisplayUnusedSchedules; to see them.
   *************
   ************* ===== Recurring Error Summary =====
   ************* The following recurring error messages occurred.
   *************
   *************  ** Warning ** "TOTAL HOT WATER LOAD" - Target water temperature should be less than or equal to the hot water temperature error continues...
   *************  **   ~~~   **   This error occurred 107941 total times;
   *************  **   ~~~   **   during Warmup 0 times;
   *************  **   ~~~   **   during Sizing 0 times.
   *************  **   ~~~   **   Max=11.347724  Min=3.038830E-005
   *************
   *************
   ************* ===== Final Error Summary =====
   ************* The following error categories occurred.  Consider correcting or noting.
   ************* Nominally Unused Constructions
   ************* ..The nominally unused constructions warning is provided to alert you to potential conditions that can cause
   ************* ..extra time during simulation. Each construction is calculated by the algorithm indicated in the HeatBalanceAlgorithm
   ************* ..object. You may remove the constructions indicated (when you use the DisplayExtraWarnings option).
   *************
   ************* EnergyPlus Warmup Error Summary. During Warmup: 1 Warning; 0 Severe Errors.
   ************* EnergyPlus Sizing Error Summary. During Sizing: 4 Warning; 0 Severe Errors.
   ************* EnergyPlus Completed Successfully-- 107972 Warning; 0 Severe Errors; Elapsed Time=00hr 05min 48.57sec
