Program Version,EnergyPlus, Version 22.2.0-c249759bad, YMD=2023.09.01 19:06,
   ************* Beginning Zone Sizing Calculations
   ** Warning ** ProcessScheduleInput: Schedule:Constant="ALWAYS ON DISCRETE", Schedule Type Limits Name="ONOFF" not found -- will not be validated
   ** Warning ** Foundation:Kiva="KIVA FOUNDATION", no Interior Horizontal Insulation Material Name defined
   **   ~~~   ** Interior Horizontal Insulation Depth will not be used.
   ** Warning ** CheckUsedConstructions: There are 15 nominally unused constructions in input.
   **   ~~~   ** Each Unused construction is shown.
   ************* Construction=INTERIOR FLOOR
   ************* Construction=INTERIOR WINDOW
   ************* Construction=EXTERIOR DOOR
   ************* Construction=INTERIOR DOOR
   ************* Construction=GABLE CONSTRUCTION
   ************* Construction=CRAWL_FLOOR
   ************* Construction=INSULATED PIPE
   ************* Construction=PLAIN PIPE
   ************* Construction=TDD PIPE
   ************* Construction=TDD DOME
   ************* Construction=TDD DIFFUSER
   ************* Construction=CRAWL WALL
   ************* Construction=CEILING-FLOOR-LAYER
   ************* Construction=SLAB CONSTRUCTION W FULL R10 INSULATION
   ************* Construction=SLAB CONSTRUCTION W FULL R5 INSULATION
   ** Warning ** GetDXCoils: Coil:Heating:DX:SingleSpeed="DX_HEATING_COIL" curve values
   **   ~~~   ** ... Defrost Energy Input Ratio Function of Temperature Curve Name = DEFROSTEIR output is not equal to 1.0 (+ or - 10%) at rated conditions.
   **   ~~~   ** ... Curve output at rated conditions = 0.152
   ************* Beginning System Sizing Calculations
   ************* Beginning Plant Sizing Calculations
   ** Warning ** Coil:WaterHeating:AirToWaterHeatPump:Wrapped "HEAT PUMP WATER HEATER EVAPORATOR": Rated air volume flow rate per watt of rated total water heating capacity is out of range
   **   ~~~   ** Min Rated Vol Flow Per Watt=[4.027E-005], Rated Vol Flow Per Watt=[1.510E-004], Max Rated Vol Flow Per Watt=[8.056E-005]. See Input-Output Reference Manual for valid range.
   ************* SizeFan: : Potential issue with equipment sizing for Fan:OnOff HEAT PUMP WATER HEATER FAN
   **   ~~~   ** User-Specified Maximum Flow Rate [m3/s] = 0.22653
   **   ~~~   ** differs from Design Size Maximum Flow Rate [m3/s] = 7.55250E-002
   **   ~~~   ** This may, or may not, indicate mismatched component sizes.
   **   ~~~   ** Verify that the value entered is intended and is consistent with other components.
   ** Warning ** Water heater = WATER HEATER TANK:  Recovery Efficiency and Energy Factor could not be calculated during the test for standard ratings
   **   ~~~   ** Setpoint was never recovered and/or heater never turned on
   ** Warning ** Check input. Pump nominal power or motor efficiency is set to 0, for pump=MAINS PRESSURE
   ** Warning ** Output:Meter: invalid Key Name="ELECTRIC_RANGE:INTERIOREQUIPMENT:ELECTRICITY" - not found.
   ** Warning ** Output:Meter: invalid Key Name="ELECTRIC_DRYER:INTERIOREQUIPMENT:ELECTRICITY" - not found.
   ** Warning ** Output:Meter: invalid Key Name="HEATRECOVERY:ELECTRICITY" - not found.
   ** Warning ** Output:Meter: invalid Key Name="HEATING:NATURALGAS" - not found.
   ** Warning ** Output:Meter: invalid Key Name="WATERSYSTEMS:NATURALGAS" - not found.
   ** Warning ** Output:Meter: invalid Key Name="PROPANE:FACILITY" - not found.
   ** Warning ** Output:Meter: invalid Key Name="HEATING:PROPANE" - not found.
   ************* Testing Individual Branch Integrity
   ************* All Branches passed integrity testing
   ************* Testing Individual Supply Air Path Integrity
   ************* All Supply Air Paths passed integrity testing
   ************* Testing Individual Return Air Path Integrity
   ************* All Return Air Paths passed integrity testing
   ************* No node connection errors were found.
   ************* Beginning Simulation
   ** Warning ** AirflowNetwork::Solver::validate_distribution: Heat pump water heater is simulated along with an AirflowNetwork but is not included in the AirflowNetwork.
   ** Warning ** CalcEquipmentFlowRates: "TOTAL HOT WATER LOAD" - Target water temperature is greater than the hot water temperature by (1.41 C)
   **   ~~~   **  Environment=EXTREME_WINTER, at Simulation time=01/29 06:45 - 07:00
   **   ~~~   ** ...target water temperature     = 53.33 C
   **   ~~~   ** ...hot water temperature        = 51.93 C
   **   ~~~   ** ...Target water temperature should be less than or equal to the hot water temperature. Verify temperature setpoints and schedules.
   ** Warning ** SimHVAC: Maximum iterations (20) exceeded for all HVAC loops, at EXTREME_WINTER, 01/31 11:20 - 11:25
   **   ~~~   ** The solution for one or more of the Air Loop HVAC systems did not appear to converge
   **   ~~~   ** Air System Named = CENTRAL SYSTEM did not converge for mass flow rate
   **   ~~~   ** Check values should be zero. Most Recent values listed first.
   **   ~~~   ** Demand-to-Supply interface mass flow rate check value iteration history trace: 7.914500E-002,7.914500E-002,7.914500E-002,7.914500E-002,7.914500E-002,7.914500E-002,7.914500E-002,7.914500E-002,7.914500E-002,7.914500E-002,
   **   ~~~   ** Supply-to-demand interface deck 1 mass flow rate check value iteration history trace: 7.914500E-002,7.914500E-002,7.914500E-002,7.914500E-002,7.914500E-002,7.914500E-002,7.914500E-002,7.914500E-002,7.914500E-002,7.914500E-002,
   **   ~~~   ** Air System Named = CENTRAL SYSTEM did not converge for energy
   **   ~~~   ** Check values should be zero. Most Recent values listed first.
   **   ~~~   ** Demand-to-Supply interface energy check value iteration history trace: 1568.449681,1568.449681,1568.449681,1568.449681,1568.449681,1568.449681,1568.449681,1568.449680,1568.449680,1568.449680,
   **   ~~~   ** Supply-to-demand interface deck 1 energy check value iteration history trace: 2335.263239,2335.263239,2335.263238,2335.263238,2335.263238,2335.263238,2335.263238,2335.263238,2335.263237,2335.263237,
   ** Warning ** SimHVAC: Maximum iterations (20) exceeded for all HVAC loops, at ANNUAL, 01/04 09:30 - 09:45
   **   ~~~   ** The solution for one or more of the Air Loop HVAC systems did not appear to converge
   **   ~~~   ** Air System Named = CENTRAL SYSTEM did not converge for mass flow rate
   **   ~~~   ** Check values should be zero. Most Recent values listed first.
   **   ~~~   ** Demand-to-Supply interface mass flow rate check value iteration history trace: 4.593290E-002,4.593290E-002,4.593290E-002,4.593290E-002,4.593290E-002,4.593290E-002,4.593290E-002,4.593290E-002,4.593290E-002,4.593290E-002,
   **   ~~~   ** Supply-to-demand interface deck 1 mass flow rate check value iteration history trace: 4.593290E-002,4.593290E-002,4.593290E-002,4.593290E-002,4.593290E-002,4.593290E-002,4.593290E-002,4.593290E-002,4.593290E-002,4.593290E-002,
   **   ~~~   ** Air System Named = CENTRAL SYSTEM did not converge for energy
   **   ~~~   ** Check values should be zero. Most Recent values listed first.
   **   ~~~   ** Demand-to-Supply interface energy check value iteration history trace: 910.239630,910.239630,910.239630,910.239630,910.239630,910.239630,910.239630,910.239630,910.239630,910.239630,
   **   ~~~   ** Supply-to-demand interface deck 1 energy check value iteration history trace: 1734.979260,1734.979260,1734.979260,1734.979260,1734.979260,1734.979260,1734.979260,1734.979260,1734.979260,1734.979260,
   ** Warning ** SimHVAC: Maximum iterations (20) exceeded for all HVAC loops, at ANNUAL, 02/03 09:00 - 09:15
   **   ~~~   ** The solution for one or more of the Air Loop HVAC systems did not appear to converge
   **   ~~~   ** Air System Named = CENTRAL SYSTEM did not converge for mass flow rate
   **   ~~~   ** Check values should be zero. Most Recent values listed first.
   **   ~~~   ** Demand-to-Supply interface mass flow rate check value iteration history trace: 6.718451E-002,6.718451E-002,6.718451E-002,6.718451E-002,6.718451E-002,6.718451E-002,6.718451E-002,6.718451E-002,6.718451E-002,6.718451E-002,
   **   ~~~   ** Supply-to-demand interface deck 1 mass flow rate check value iteration history trace: 6.718451E-002,6.718451E-002,6.718451E-002,6.718451E-002,6.718451E-002,6.718451E-002,6.718451E-002,6.718451E-002,6.718451E-002,6.718451E-002,
   **   ~~~   ** Air System Named = CENTRAL SYSTEM did not converge for energy
   **   ~~~   ** Check values should be zero. Most Recent values listed first.
   **   ~~~   ** Demand-to-Supply interface energy check value iteration history trace: 1331.360736,1331.360736,1331.360736,1331.360736,1331.360736,1331.360736,1331.360736,1331.360736,1331.360736,1331.360736,
   **   ~~~   ** Supply-to-demand interface deck 1 energy check value iteration history trace: 2290.265891,2290.265891,2290.265891,2290.265890,2290.265890,2290.265890,2290.265890,2290.265890,2290.265890,2290.265890,
   ** Warning ** SimHVAC: Maximum iterations (20) exceeded for all HVAC loops, at ANNUAL, 02/06 09:04 - 09:08
   **   ~~~   ** The solution for one or more of the Air Loop HVAC systems did not appear to converge
   **   ~~~   ** Air System Named = CENTRAL SYSTEM did not converge for mass flow rate
   **   ~~~   ** Check values should be zero. Most Recent values listed first.
   **   ~~~   ** Demand-to-Supply interface mass flow rate check value iteration history trace: 6.530765E-002,6.530765E-002,6.530765E-002,6.530765E-002,6.530765E-002,6.530765E-002,6.530765E-002,6.530765E-002,6.530765E-002,6.530765E-002,
   **   ~~~   ** Supply-to-demand interface deck 1 mass flow rate check value iteration history trace: 6.530765E-002,6.530765E-002,6.530765E-002,6.530765E-002,6.530765E-002,6.530765E-002,6.530765E-002,6.530765E-002,6.530765E-002,6.530765E-002,
   **   ~~~   ** Air System Named = CENTRAL SYSTEM did not converge for energy
   **   ~~~   ** Check values should be zero. Most Recent values listed first.
   **   ~~~   ** Demand-to-Supply interface energy check value iteration history trace: 1294.178052,1294.178052,1294.178052,1294.178052,1294.178052,1294.178052,1294.178052,1294.178052,1294.178052,1294.178052,
   **   ~~~   ** Supply-to-demand interface deck 1 energy check value iteration history trace: 2234.003658,2234.003658,2234.003657,2234.003657,2234.003657,2234.003657,2234.003657,2234.003657,2234.003657,2234.003657,
   ** Warning ** SimHVAC: Maximum iterations (20) exceeded for all HVAC loops, at ANNUAL, 02/09 23:30 - 23:45
   **   ~~~   ** The solution for one or more of the Air Loop HVAC systems did not appear to converge
   **   ~~~   ** Air System Named = CENTRAL SYSTEM did not converge for mass flow rate
   **   ~~~   ** Check values should be zero. Most Recent values listed first.
   **   ~~~   ** Demand-to-Supply interface mass flow rate check value iteration history trace: 6.078579E-002,6.078579E-002,6.078579E-002,6.078579E-002,6.078579E-002,6.078579E-002,6.078579E-002,6.078579E-002,6.078579E-002,6.078579E-002,
   **   ~~~   ** Supply-to-demand interface deck 1 mass flow rate check value iteration history trace: 6.078579E-002,6.078579E-002,6.078579E-002,6.078579E-002,6.078579E-002,6.078579E-002,6.078579E-002,6.078579E-002,6.078579E-002,6.078579E-002,
   **   ~~~   ** Air System Named = CENTRAL SYSTEM did not converge for energy
   **   ~~~   ** Check values should be zero. Most Recent values listed first.
   **   ~~~   ** Demand-to-Supply interface energy check value iteration history trace: 1136.448473,1136.448473,1136.448473,1136.448472,1136.448472,1136.448472,1136.448472,1136.448472,1136.448472,1136.448472,
   **   ~~~   ** Supply-to-demand interface deck 1 energy check value iteration history trace: 1976.259330,1976.259330,1976.259329,1976.259329,1976.259329,1976.259329,1976.259329,1976.259329,1976.259329,1976.259329,
   ** Warning ** SimHVAC: Maximum iterations (20) exceeded for all HVAC loops, at ANNUAL, 02/22 11:15 - 11:30
   **   ~~~   ** The solution for one or more of the Air Loop HVAC systems did not appear to converge
   **   ~~~   ** Air System Named = CENTRAL SYSTEM did not converge for mass flow rate
   **   ~~~   ** Check values should be zero. Most Recent values listed first.
   **   ~~~   ** Demand-to-Supply interface mass flow rate check value iteration history trace: 2.053760E-002,2.053760E-002,2.053760E-002,2.053760E-002,2.053760E-002,2.053760E-002,2.053760E-002,2.053760E-002,2.053760E-002,2.053760E-002,
   **   ~~~   ** Supply-to-demand interface deck 1 mass flow rate check value iteration history trace: 2.053760E-002,2.053760E-002,2.053760E-002,2.053760E-002,2.053760E-002,2.053760E-002,2.053760E-002,2.053760E-002,2.053760E-002,2.053760E-002,
   **   ~~~   ** Air System Named = CENTRAL SYSTEM did not converge for energy
   **   ~~~   ** Check values should be zero. Most Recent values listed first.
   **   ~~~   ** Demand-to-Supply interface energy check value iteration history trace: 406.985632,406.985632,406.985632,406.985632,406.985632,406.985632,406.985632,406.985632,406.985632,406.985632,
   **   ~~~   ** Supply-to-demand interface deck 1 energy check value iteration history trace: 626.953085,626.953085,626.953085,626.953085,626.953085,626.953085,626.953085,626.953085,626.953085,626.953085,
   ** Warning ** SimHVAC: Maximum iterations (20) exceeded for all HVAC loops, at ANNUAL, 03/03 09:17 - 09:20
   **   ~~~   ** The solution for one or more of the Air Loop HVAC systems did not appear to converge
   **   ~~~   ** Air System Named = CENTRAL SYSTEM did not converge for mass flow rate
   **   ~~~   ** Check values should be zero. Most Recent values listed first.
   **   ~~~   ** Demand-to-Supply interface mass flow rate check value iteration history trace: 6.199208E-002,6.199208E-002,6.199208E-002,6.199208E-002,6.199208E-002,6.199208E-002,6.199208E-002,6.199208E-002,6.199208E-002,6.199208E-002,
   **   ~~~   ** Supply-to-demand interface deck 1 mass flow rate check value iteration history trace: 6.199208E-002,6.199208E-002,6.199208E-002,6.199208E-002,6.199208E-002,6.199208E-002,6.199208E-002,6.199208E-002,6.199208E-002,6.199208E-002,
   **   ~~~   ** Air System Named = CENTRAL SYSTEM did not converge for energy
   **   ~~~   ** Check values should be zero. Most Recent values listed first.
   **   ~~~   ** Demand-to-Supply interface energy check value iteration history trace: 1224.141863,1224.141863,1224.141863,1224.141863,1224.141863,1224.141863,1224.141863,1224.141863,1224.141863,1224.141863,
   **   ~~~   ** Supply-to-demand interface deck 1 energy check value iteration history trace: 2163.387219,2163.387219,2163.387219,2163.387219,2163.387218,2163.387218,2163.387218,2163.387218,2163.387218,2163.387218,
   ** Warning ** SimHVAC: Maximum iterations (20) exceeded for all HVAC loops, at ANNUAL, 03/08 09:05 - 09:08
   **   ~~~   ** The solution for one or more of the Air Loop HVAC systems did not appear to converge
   **   ~~~   ** Air System Named = CENTRAL SYSTEM did not converge for mass flow rate
   **   ~~~   ** Check values should be zero. Most Recent values listed first.
   **   ~~~   ** Demand-to-Supply interface mass flow rate check value iteration history trace: 8.205510E-002,8.205510E-002,8.205510E-002,8.205510E-002,8.205510E-002,8.205510E-002,8.205510E-002,8.205510E-002,8.205510E-002,8.205510E-002,
   **   ~~~   ** Supply-to-demand interface deck 1 mass flow rate check value iteration history trace: 8.205510E-002,8.205510E-002,8.205510E-002,8.205510E-002,8.205510E-002,8.205510E-002,8.205510E-002,8.205510E-002,8.205510E-002,8.205510E-002,
   **   ~~~   ** Air System Named = CENTRAL SYSTEM did not converge for energy
   **   ~~~   ** Check values should be zero. Most Recent values listed first.
   **   ~~~   ** Demand-to-Supply interface energy check value iteration history trace: 1626.109085,1626.109084,1626.109084,1626.109084,1626.109084,1626.109084,1626.109084,1626.109084,1626.109084,1626.109084,
   **   ~~~   ** Supply-to-demand interface deck 1 energy check value iteration history trace: 2724.747243,2724.747243,2724.747243,2724.747243,2724.747243,2724.747243,2724.747243,2724.747242,2724.747242,2724.747242,
   ** Warning ** SimHVAC: Maximum iterations (20) exceeded for all HVAC loops, at ANNUAL, 03/09 09:43 - 09:45
   **   ~~~   ** The solution for one or more of the Air Loop HVAC systems did not appear to converge
   **   ~~~   ** Air System Named = CENTRAL SYSTEM did not converge for mass flow rate
   **   ~~~   ** Check values should be zero. Most Recent values listed first.
   **   ~~~   ** Demand-to-Supply interface mass flow rate check value iteration history trace: 6.937888E-002,6.937888E-002,6.937888E-002,6.937888E-002,6.937888E-002,6.937888E-002,6.937888E-002,6.937888E-002,6.937888E-002,6.937888E-002,
   **   ~~~   ** Supply-to-demand interface deck 1 mass flow rate check value iteration history trace: 6.937888E-002,6.937888E-002,6.937888E-002,6.937888E-002,6.937888E-002,6.937888E-002,6.937888E-002,6.937888E-002,6.937888E-002,6.937888E-002,
   **   ~~~   ** Air System Named = CENTRAL SYSTEM did not converge for energy
   **   ~~~   ** Check values should be zero. Most Recent values listed first.
   **   ~~~   ** Demand-to-Supply interface energy check value iteration history trace: 1374.894301,1374.894301,1374.894301,1374.894301,1374.894301,1374.894301,1374.894301,1374.894301,1374.894301,1374.894300,
   **   ~~~   ** Supply-to-demand interface deck 1 energy check value iteration history trace: 2489.116722,2489.116722,2489.116722,2489.116722,2489.116722,2489.116722,2489.116721,2489.116721,2489.116721,2489.116721,
   ** Warning ** SimHVAC: Maximum iterations (20) exceeded for all HVAC loops, at ANNUAL, 03/19 09:00 - 09:03
   **   ~~~   ** The solution for one or more of the Air Loop HVAC systems did not appear to converge
   **   ~~~   ** Air System Named = CENTRAL SYSTEM did not converge for mass flow rate
   **   ~~~   ** Check values should be zero. Most Recent values listed first.
   **   ~~~   ** Demand-to-Supply interface mass flow rate check value iteration history trace: 5.439811E-002,5.439811E-002,5.439811E-002,5.439811E-002,5.439811E-002,5.439811E-002,5.439811E-002,5.439811E-002,5.439811E-002,5.439811E-002,
   **   ~~~   ** Supply-to-demand interface deck 1 mass flow rate check value iteration history trace: 5.439811E-002,5.439811E-002,5.439811E-002,5.439811E-002,5.439811E-002,5.439811E-002,5.439811E-002,5.439811E-002,5.439811E-002,5.439811E-002,
   **   ~~~   ** Air System Named = CENTRAL SYSTEM did not converge for energy
   **   ~~~   ** Check values should be zero. Most Recent values listed first.
   **   ~~~   ** Demand-to-Supply interface energy check value iteration history trace: 1073.902856,1073.902856,1073.902856,1073.902856,1073.902856,1073.902856,1073.902856,1073.902856,1073.902856,1073.902856,
   **   ~~~   ** Supply-to-demand interface deck 1 energy check value iteration history trace: 1927.694902,1927.694902,1927.694902,1927.694902,1927.694902,1927.694902,1927.694902,1927.694902,1927.694902,1927.694902,
   ** Warning ** SimHVAC: Maximum iterations (20) exceeded for all HVAC loops, at ANNUAL, 03/20 09:00 - 09:08
   **   ~~~   ** The solution for one or more of the Air Loop HVAC systems did not appear to converge
   **   ~~~   ** Air System Named = CENTRAL SYSTEM did not converge for mass flow rate
   **   ~~~   ** Check values should be zero. Most Recent values listed first.
   **   ~~~   ** Demand-to-Supply interface mass flow rate check value iteration history trace: 6.181272E-002,6.181272E-002,6.181272E-002,6.181272E-002,6.181272E-002,6.181272E-002,6.181272E-002,6.181272E-002,6.181272E-002,6.181272E-002,
   **   ~~~   ** Supply-to-demand interface deck 1 mass flow rate check value iteration history trace: 6.181272E-002,6.181272E-002,6.181272E-002,6.181272E-002,6.181272E-002,6.181272E-002,6.181272E-002,6.181272E-002,6.181272E-002,6.181272E-002,
   **   ~~~   ** Air System Named = CENTRAL SYSTEM did not converge for energy
   **   ~~~   ** Check values should be zero. Most Recent values listed first.
   **   ~~~   ** Demand-to-Supply interface energy check value iteration history trace: 1221.905326,1221.905326,1221.905326,1221.905326,1221.905326,1221.905326,1221.905326,1221.905326,1221.905326,1221.905326,
   **   ~~~   ** Supply-to-demand interface deck 1 energy check value iteration history trace: 2124.160430,2124.160429,2124.160429,2124.160429,2124.160429,2124.160429,2124.160429,2124.160429,2124.160429,2124.160429,
   ** Warning ** SimHVAC: Maximum iterations (20) exceeded for all HVAC loops, at ANNUAL, 04/07 09:15 - 09:30
   **   ~~~   ** The solution for one or more of the Air Loop HVAC systems did not appear to converge
   **   ~~~   ** Air System Named = CENTRAL SYSTEM did not converge for mass flow rate
   **   ~~~   ** Check values should be zero. Most Recent values listed first.
   **   ~~~   ** Demand-to-Supply interface mass flow rate check value iteration history trace: 0.112919,0.112919,0.112919,0.112919,0.112919,0.112919,0.112919,0.112919,0.112919,0.112919,
   **   ~~~   ** Supply-to-demand interface deck 1 mass flow rate check value iteration history trace: 0.112919,0.112919,0.112919,0.112919,0.112919,0.112919,0.112919,0.112919,0.112919,0.112919,
   **   ~~~   ** Air System Named = CENTRAL SYSTEM did not converge for energy
   **   ~~~   ** Check values should be zero. Most Recent values listed first.
   **   ~~~   ** Demand-to-Supply interface energy check value iteration history trace: 2676.359153,2676.359153,2676.359153,2676.359153,2676.359153,2676.359154,2676.359154,2676.359154,2676.359154,2676.359154,
   **   ~~~   ** Supply-to-demand interface deck 1 energy check value iteration history trace: 1255.222964,1255.222964,1255.222964,1255.222964,1255.222964,1255.222964,1255.222964,1255.222965,1255.222965,1255.222965,
   ** Warning ** SimHVAC: Maximum iterations (20) exceeded for all HVAC loops, at ANNUAL, 04/15 06:38 - 06:45
   **   ~~~   ** The solution for one or more of the Air Loop HVAC systems did not appear to converge
   **   ~~~   ** Air System Named = CENTRAL SYSTEM did not converge for mass flow rate
   **   ~~~   ** Check values should be zero. Most Recent values listed first.
   **   ~~~   ** Demand-to-Supply interface mass flow rate check value iteration history trace: 0.261652,0.261652,0.261652,0.261652,0.261652,0.261652,0.261652,0.261652,0.261652,0.261652,
   **   ~~~   ** Supply-to-demand interface deck 1 mass flow rate check value iteration history trace: 0.261652,0.261652,0.261652,0.261652,0.261652,0.261652,0.261652,0.261652,0.261652,0.261652,
   **   ~~~   ** Air System Named = CENTRAL SYSTEM did not converge for energy
   **   ~~~   ** Check values should be zero. Most Recent values listed first.
   **   ~~~   ** Demand-to-Supply interface energy check value iteration history trace: 6321.746566,6321.746566,6321.746566,6321.746567,6321.746567,6321.746568,6321.746568,6321.746568,6321.746569,6321.746569,
   **   ~~~   ** Supply-to-demand interface deck 1 energy check value iteration history trace: 3540.435987,3540.435987,3540.435987,3540.435988,3540.435988,3540.435988,3540.435988,3540.435988,3540.435989,3540.435989,
   ** Warning ** SimHVAC: Maximum iterations (20) exceeded for all HVAC loops, at ANNUAL, 04/16 00:15 - 00:30
   **   ~~~   ** The solution for one or more of the Air Loop HVAC systems did not appear to converge
   **   ~~~   ** Air System Named = CENTRAL SYSTEM did not converge for mass flow rate
   **   ~~~   ** Check values should be zero. Most Recent values listed first.
   **   ~~~   ** Demand-to-Supply interface mass flow rate check value iteration history trace: 9.669048E-002,9.669048E-002,9.669048E-002,9.669048E-002,9.669048E-002,9.669048E-002,9.669048E-002,9.669048E-002,9.669048E-002,9.669048E-002,
   **   ~~~   ** Supply-to-demand interface deck 1 mass flow rate check value iteration history trace: 9.669048E-002,9.669048E-002,9.669048E-002,9.669048E-002,9.669048E-002,9.669048E-002,9.669048E-002,9.669048E-002,9.669048E-002,9.669048E-002,
   **   ~~~   ** Air System Named = CENTRAL SYSTEM did not converge for energy
   **   ~~~   ** Check values should be zero. Most Recent values listed first.
   **   ~~~   ** Demand-to-Supply interface energy check value iteration history trace: 2416.655955,2416.655955,2416.655955,2416.655955,2416.655956,2416.655956,2416.655956,2416.655956,2416.655956,2416.655956,
   **   ~~~   ** Supply-to-demand interface deck 1 energy check value iteration history trace: 1291.215831,1291.215831,1291.215831,1291.215831,1291.215831,1291.215831,1291.215831,1291.215831,1291.215831,1291.215832,
   ************* Simulation Error Summary *************
   ** Warning ** The following Report Variables were requested but not generated -- check.rdd file
   **   ~~~   ** Either the IDF did not contain these elements, the variable name is misspelled,
   **   ~~~   ** or the requested variable is an advanced output which requires Output : Diagnostics, DisplayAdvancedReportVariables;
   ************* Key=*, VarName=BASEBOARD TOTAL HEATING ENERGY, Frequency=
   ************* Key=*, VarName=WATER HEATER NATURALGAS ENERGY, Frequency=
   ************* Key=*, VarName=COOLING COIL TOTAL HEATING ENERGY, Frequency=
   ************* There are 34 unused schedules in input.
   ************* There are 388 unused week schedules in input.
   ************* There are 397 unused day schedules in input.
   ************* Use Output:Diagnostics,DisplayUnusedSchedules; to see them.
   *************
   ************* ===== Recurring Error Summary =====
   ************* The following recurring error messages occurred.
   *************
   *************  ** Warning ** "TOTAL HOT WATER LOAD" - Target water temperature should be less than or equal to the hot water temperature error continues...
   *************  **   ~~~   **   This error occurred 124601 total times;
   *************  **   ~~~   **   during Warmup 0 times;
   *************  **   ~~~   **   during Sizing 0 times.
   *************  **   ~~~   **   Max=9.49858  Min=1.410083E-003
   *************
   *************  ** Warning ** SimHVAC: Exceeding Maximum iterations for all HVAC loops, during ANNUAL continues
   *************  **   ~~~   **   This error occurred 15 total times;
   *************  **   ~~~   **   during Warmup 0 times;
   *************  **   ~~~   **   during Sizing 0 times.
   *************
   *************
   ************* ===== Final Error Summary =====
   ************* The following error categories occurred.  Consider correcting or noting.
   ************* Nominally Unused Constructions
   ************* ..The nominally unused constructions warning is provided to alert you to potential conditions that can cause
   ************* ..extra time during simulation. Each construction is calculated by the algorithm indicated in the HeatBalanceAlgorithm
   ************* ..object. You may remove the constructions indicated (when you use the DisplayExtraWarnings option).
   *************
   ************* EnergyPlus Warmup Error Summary. During Warmup: 1 Warning; 0 Severe Errors.
   ************* EnergyPlus Sizing Error Summary. During Sizing: 4 Warning; 0 Severe Errors.
   ************* EnergyPlus Completed Successfully-- 124647 Warning; 0 Severe Errors; Elapsed Time=00hr 01min 46.49sec
