Program Version,EnergyPlus, Version 22.2.0-c249759bad, YMD=2023.09.01 19:02,
   ************* Beginning Zone Sizing Calculations
   ** Warning ** ProcessScheduleInput: Schedule:Constant="ALWAYS ON DISCRETE", Schedule Type Limits Name="ONOFF" not found -- will not be validated
   ** Warning ** Foundation:Kiva="KIVA FOUNDATION", no Interior Horizontal Insulation Material Name defined
   **   ~~~   ** Interior Horizontal Insulation Depth will not be used.
   ** Warning ** CheckUsedConstructions: There are 15 nominally unused constructions in input.
   **   ~~~   ** Each Unused construction is shown.
   ************* Construction=INTERIOR FLOOR
   ************* Construction=INTERIOR WINDOW
   ************* Construction=EXTERIOR DOOR
   ************* Construction=INTERIOR DOOR
   ************* Construction=GABLE CONSTRUCTION
   ************* Construction=CRAWL_FLOOR
   ************* Construction=INSULATED PIPE
   ************* Construction=PLAIN PIPE
   ************* Construction=TDD PIPE
   ************* Construction=TDD DOME
   ************* Construction=TDD DIFFUSER
   ************* Construction=CRAWL WALL
   ************* Construction=CEILING-FLOOR-LAYER
   ************* Construction=SLAB CONSTRUCTION W FULL R10 INSULATION
   ************* Construction=SLAB CONSTRUCTION W FULL R5 INSULATION
   ** Warning ** GetDXCoils: Coil:Heating:DX:SingleSpeed="DX_HEATING_COIL" curve values
   **   ~~~   ** ... Defrost Energy Input Ratio Function of Temperature Curve Name = DEFROSTEIR output is not equal to 1.0 (+ or - 10%) at rated conditions.
   **   ~~~   ** ... Curve output at rated conditions = 0.152
   ************* Beginning System Sizing Calculations
   ************* Beginning Plant Sizing Calculations
   ** Warning ** SizeDXCoil Coil:Cooling:DX:SingleSpeed DX_COOLING_COIL
   **   ~~~   ** ...Gross Rated Total Cooling Capacity [W] will be limited by the maximum rated volume flow per rated total capacity ratio.
   **   ~~~   ** ...DX coil volume flow rate ( m3/s ) = 0.475796
   **   ~~~   ** ...Requested capacity ( W ) = 7608.886
   **   ~~~   ** ...Requested flow/capacity ratio ( m3/s/W ) = 6.253E-005
   **   ~~~   ** ...Maximum flow/capacity ratio ( m3/s/W ) = 6.041E-005
   **   ~~~   ** ...Adjusted capacity ( W ) = 7876.119
   ** Warning ** Coil:WaterHeating:AirToWaterHeatPump:Wrapped "HEAT PUMP WATER HEATER EVAPORATOR": Rated air volume flow rate per watt of rated total water heating capacity is out of range
   **   ~~~   ** Min Rated Vol Flow Per Watt=[4.027E-005], Rated Vol Flow Per Watt=[1.510E-004], Max Rated Vol Flow Per Watt=[8.056E-005]. See Input-Output Reference Manual for valid range.
   ************* SizeFan: : Potential issue with equipment sizing for Fan:OnOff HEAT PUMP WATER HEATER FAN
   **   ~~~   ** User-Specified Maximum Flow Rate [m3/s] = 0.22653
   **   ~~~   ** differs from Design Size Maximum Flow Rate [m3/s] = 7.55250E-002
   **   ~~~   ** This may, or may not, indicate mismatched component sizes.
   **   ~~~   ** Verify that the value entered is intended and is consistent with other components.
   ** Warning ** Water heater = WATER HEATER TANK:  Recovery Efficiency and Energy Factor could not be calculated during the test for standard ratings
   **   ~~~   ** Setpoint was never recovered and/or heater never turned on
   ** Warning ** Check input. Pump nominal power or motor efficiency is set to 0, for pump=MAINS PRESSURE
   ** Warning ** Output:Meter: invalid Key Name="ELECTRIC_RANGE:INTERIOREQUIPMENT:ELECTRICITY" - not found.
   ** Warning ** Output:Meter: invalid Key Name="ELECTRIC_DRYER:INTERIOREQUIPMENT:ELECTRICITY" - not found.
   ** Warning ** Output:Meter: invalid Key Name="HEATRECOVERY:ELECTRICITY" - not found.
   ** Warning ** Output:Meter: invalid Key Name="HEATING:NATURALGAS" - not found.
   ** Warning ** Output:Meter: invalid Key Name="WATERSYSTEMS:NATURALGAS" - not found.
   ** Warning ** Output:Meter: invalid Key Name="PROPANE:FACILITY" - not found.
   ** Warning ** Output:Meter: invalid Key Name="HEATING:PROPANE" - not found.
   ************* Testing Individual Branch Integrity
   ************* All Branches passed integrity testing
   ************* Testing Individual Supply Air Path Integrity
   ************* All Supply Air Paths passed integrity testing
   ************* Testing Individual Return Air Path Integrity
   ************* All Return Air Paths passed integrity testing
   ************* No node connection errors were found.
   ************* Beginning Simulation
   ** Warning ** AirflowNetwork::Solver::validate_distribution: Heat pump water heater is simulated along with an AirflowNetwork but is not included in the AirflowNetwork.
   ** Warning ** CalcEquipmentFlowRates: "TOTAL HOT WATER LOAD" - Target water temperature is greater than the hot water temperature by (1.28 C)
   **   ~~~   **  Environment=EXTREME_WINTER, at Simulation time=01/29 03:45 - 04:00
   **   ~~~   ** ...target water temperature     = 53.33 C
   **   ~~~   ** ...hot water temperature        = 52.05 C
   **   ~~~   ** ...Target water temperature should be less than or equal to the hot water temperature. Verify temperature setpoints and schedules.
   ** Warning ** SimHVAC: Maximum iterations (20) exceeded for all HVAC loops, at EXTREME_WINTER, 01/31 10:08 - 10:11
   **   ~~~   ** The solution for one or more of the Air Loop HVAC systems did not appear to converge
   **   ~~~   ** Air System Named = CENTRAL SYSTEM did not converge for mass flow rate
   **   ~~~   ** Check values should be zero. Most Recent values listed first.
   **   ~~~   ** Demand-to-Supply interface mass flow rate check value iteration history trace: 4.603968E-002,4.603968E-002,4.603968E-002,4.603968E-002,4.603968E-002,4.603968E-002,4.603968E-002,4.603968E-002,4.603968E-002,4.603968E-002,
   **   ~~~   ** Supply-to-demand interface deck 1 mass flow rate check value iteration history trace: 4.603968E-002,4.603968E-002,4.603968E-002,4.603968E-002,4.603968E-002,4.603968E-002,4.603968E-002,4.603968E-002,4.603968E-002,4.603968E-002,
   **   ~~~   ** Air System Named = CENTRAL SYSTEM did not converge for energy
   **   ~~~   ** Check values should be zero. Most Recent values listed first.
   **   ~~~   ** Demand-to-Supply interface energy check value iteration history trace: 907.522372,907.522372,907.522372,907.522372,907.522372,907.522372,907.522372,907.522372,907.522372,907.522372,
   **   ~~~   ** Supply-to-demand interface deck 1 energy check value iteration history trace: 1679.238379,1679.238379,1679.238379,1679.238379,1679.238379,1679.238379,1679.238379,1679.238378,1679.238378,1679.238378,
   ** Warning ** SimHVAC: Maximum iterations (20) exceeded for all HVAC loops, at ANNUAL, 01/02 19:30 - 19:45
   **   ~~~   ** The solution for one or more of the Air Loop HVAC systems did not appear to converge
   **   ~~~   ** Air System Named = CENTRAL SYSTEM did not converge for mass flow rate
   **   ~~~   ** Check values should be zero. Most Recent values listed first.
   **   ~~~   ** Demand-to-Supply interface mass flow rate check value iteration history trace: 6.712258E-002,6.712258E-002,6.712258E-002,6.712258E-002,6.712258E-002,6.712258E-002,6.712258E-002,6.712258E-002,6.712258E-002,6.712258E-002,
   **   ~~~   ** Supply-to-demand interface deck 1 mass flow rate check value iteration history trace: 6.712258E-002,6.712258E-002,6.712258E-002,6.712258E-002,6.712258E-002,6.712258E-002,6.712258E-002,6.712258E-002,6.712258E-002,6.712258E-002,
   **   ~~~   ** Air System Named = CENTRAL SYSTEM did not converge for energy
   **   ~~~   ** Check values should be zero. Most Recent values listed first.
   **   ~~~   ** Demand-to-Supply interface energy check value iteration history trace: 1328.117589,1328.117589,1328.117589,1328.117589,1328.117589,1328.117589,1328.117589,1328.117589,1328.117589,1328.117589,
   **   ~~~   ** Supply-to-demand interface deck 1 energy check value iteration history trace: 2239.639517,2239.639517,2239.639516,2239.639516,2239.639516,2239.639516,2239.639516,2239.639516,2239.639516,2239.639516,
   ** Warning ** SimHVAC: Maximum iterations (20) exceeded for all HVAC loops, at ANNUAL, 01/04 17:00 - 17:05
   **   ~~~   ** The solution for one or more of the Air Loop HVAC systems did not appear to converge
   **   ~~~   ** Air System Named = CENTRAL SYSTEM did not converge for mass flow rate
   **   ~~~   ** Check values should be zero. Most Recent values listed first.
   **   ~~~   ** Demand-to-Supply interface mass flow rate check value iteration history trace: 8.713551E-002,8.713551E-002,8.713551E-002,8.713551E-002,8.713551E-002,8.713551E-002,8.713551E-002,8.713551E-002,8.713551E-002,8.713551E-002,
   **   ~~~   ** Supply-to-demand interface deck 1 mass flow rate check value iteration history trace: 8.713551E-002,8.713551E-002,8.713551E-002,8.713551E-002,8.713551E-002,8.713551E-002,8.713551E-002,8.713551E-002,8.713551E-002,8.713551E-002,
   **   ~~~   ** Air System Named = CENTRAL SYSTEM did not converge for energy
   **   ~~~   ** Check values should be zero. Most Recent values listed first.
   **   ~~~   ** Demand-to-Supply interface energy check value iteration history trace: 1718.070560,1718.070560,1718.070559,1718.070559,1718.070559,1718.070559,1718.070559,1718.070559,1718.070559,1718.070559,
   **   ~~~   ** Supply-to-demand interface deck 1 energy check value iteration history trace: 2588.790462,2588.790462,2588.790462,2588.790461,2588.790461,2588.790461,2588.790461,2588.790461,2588.790460,2588.790460,
   ** Warning ** SimHVAC: Maximum iterations (20) exceeded for all HVAC loops, at ANNUAL, 01/20 08:36 - 08:39
   **   ~~~   ** The solution for one or more of the Air Loop HVAC systems did not appear to converge
   **   ~~~   ** Air System Named = CENTRAL SYSTEM did not converge for mass flow rate
   **   ~~~   ** Check values should be zero. Most Recent values listed first.
   **   ~~~   ** Demand-to-Supply interface mass flow rate check value iteration history trace: 6.216227E-002,6.216227E-002,6.216227E-002,6.216227E-002,6.216227E-002,6.216227E-002,6.216227E-002,6.216227E-002,6.216227E-002,6.216227E-002,
   **   ~~~   ** Supply-to-demand interface deck 1 mass flow rate check value iteration history trace: 6.216227E-002,6.216227E-002,6.216227E-002,6.216227E-002,6.216227E-002,6.216227E-002,6.216227E-002,6.216227E-002,6.216227E-002,6.216227E-002,
   **   ~~~   ** Air System Named = CENTRAL SYSTEM did not converge for energy
   **   ~~~   ** Check values should be zero. Most Recent values listed first.
   **   ~~~   ** Demand-to-Supply interface energy check value iteration history trace: 1231.872432,1231.872432,1231.872432,1231.872432,1231.872431,1231.872431,1231.872431,1231.872431,1231.872431,1231.872431,
   **   ~~~   ** Supply-to-demand interface deck 1 energy check value iteration history trace: 2137.691114,2137.691114,2137.691114,2137.691113,2137.691113,2137.691113,2137.691113,2137.691113,2137.691113,2137.691113,
   ** Warning ** SimHVAC: Maximum iterations (20) exceeded for all HVAC loops, at ANNUAL, 02/01 22:00 - 22:15
   **   ~~~   ** The solution for one or more of the Air Loop HVAC systems did not appear to converge
   **   ~~~   ** Air System Named = CENTRAL SYSTEM did not converge for mass flow rate
   **   ~~~   ** Check values should be zero. Most Recent values listed first.
   **   ~~~   ** Demand-to-Supply interface mass flow rate check value iteration history trace: 7.838364E-002,7.838364E-002,7.838364E-002,7.838364E-002,7.838364E-002,7.838364E-002,7.838364E-002,7.838364E-002,7.838364E-002,7.838364E-002,
   **   ~~~   ** Supply-to-demand interface deck 1 mass flow rate check value iteration history trace: 7.838364E-002,7.838364E-002,7.838364E-002,7.838364E-002,7.838364E-002,7.838364E-002,7.838364E-002,7.838364E-002,7.838364E-002,7.838364E-002,
   **   ~~~   ** Air System Named = CENTRAL SYSTEM did not converge for energy
   **   ~~~   ** Check values should be zero. Most Recent values listed first.
   **   ~~~   ** Demand-to-Supply interface energy check value iteration history trace: 1553.748854,1553.748854,1553.748853,1553.748853,1553.748853,1553.748853,1553.748853,1553.748853,1553.748853,1553.748853,
   **   ~~~   ** Supply-to-demand interface deck 1 energy check value iteration history trace: 2249.411104,2249.411104,2249.411104,2249.411103,2249.411103,2249.411103,2249.411103,2249.411103,2249.411103,2249.411103,
   ** Warning ** SimHVAC: Maximum iterations (20) exceeded for all HVAC loops, at ANNUAL, 02/11 09:31 - 09:33
   **   ~~~   ** The solution for one or more of the Air Loop HVAC systems did not appear to converge
   **   ~~~   ** Air System Named = CENTRAL SYSTEM did not converge for mass flow rate
   **   ~~~   ** Check values should be zero. Most Recent values listed first.
   **   ~~~   ** Demand-to-Supply interface mass flow rate check value iteration history trace: 7.225687E-002,7.225687E-002,7.225687E-002,7.225687E-002,7.225687E-002,7.225687E-002,7.225687E-002,7.225687E-002,7.225687E-002,7.225687E-002,
   **   ~~~   ** Supply-to-demand interface deck 1 mass flow rate check value iteration history trace: 7.225687E-002,7.225687E-002,7.225687E-002,7.225687E-002,7.225687E-002,7.225687E-002,7.225687E-002,7.225687E-002,7.225687E-002,7.225687E-002,
   **   ~~~   ** Air System Named = CENTRAL SYSTEM did not converge for energy
   **   ~~~   ** Check values should be zero. Most Recent values listed first.
   **   ~~~   ** Demand-to-Supply interface energy check value iteration history trace: 1432.015306,1432.015306,1432.015306,1432.015306,1432.015305,1432.015305,1432.015305,1432.015305,1432.015305,1432.015305,
   **   ~~~   ** Supply-to-demand interface deck 1 energy check value iteration history trace: 2401.833978,2401.833978,2401.833978,2401.833977,2401.833977,2401.833977,2401.833977,2401.833977,2401.833977,2401.833977,
   ** Warning ** SimHVAC: Maximum iterations (20) exceeded for all HVAC loops, at ANNUAL, 11/28 06:30 - 06:45
   **   ~~~   ** The solution for one or more of the Air Loop HVAC systems did not appear to converge
   **   ~~~   ** Air System Named = CENTRAL SYSTEM did not converge for mass flow rate
   **   ~~~   ** Check values should be zero. Most Recent values listed first.
   **   ~~~   ** Demand-to-Supply interface mass flow rate check value iteration history trace: 6.324989E-002,6.324989E-002,6.324989E-002,6.324989E-002,6.324989E-002,6.324989E-002,6.324989E-002,6.324989E-002,6.324989E-002,6.324989E-002,
   **   ~~~   ** Supply-to-demand interface deck 1 mass flow rate check value iteration history trace: 6.324989E-002,6.324989E-002,6.324989E-002,6.324989E-002,6.324989E-002,6.324989E-002,6.324989E-002,6.324989E-002,6.324989E-002,6.324989E-002,
   **   ~~~   ** Air System Named = CENTRAL SYSTEM did not converge for energy
   **   ~~~   ** Check values should be zero. Most Recent values listed first.
   **   ~~~   ** Demand-to-Supply interface energy check value iteration history trace: 1243.149776,1243.149776,1243.149776,1243.149776,1243.149776,1243.149776,1243.149776,1243.149776,1243.149776,1243.149776,
   **   ~~~   ** Supply-to-demand interface deck 1 energy check value iteration history trace: 2168.081531,2168.081531,2168.081531,2168.081531,2168.081531,2168.081531,2168.081531,2168.081531,2168.081531,2168.081531,
   ** Warning ** SimHVAC: Maximum iterations (20) exceeded for all HVAC loops, at ANNUAL, 12/19 18:35 - 18:40
   **   ~~~   ** The solution for one or more of the Air Loop HVAC systems did not appear to converge
   **   ~~~   ** Air System Named = CENTRAL SYSTEM did not converge for mass flow rate
   **   ~~~   ** Check values should be zero. Most Recent values listed first.
   **   ~~~   ** Demand-to-Supply interface mass flow rate check value iteration history trace: 0.300643,0.300643,0.300643,0.300643,0.300643,0.300643,0.300643,0.300643,0.300643,0.300643,
   **   ~~~   ** Supply-to-demand interface deck 1 mass flow rate check value iteration history trace: 0.300643,0.300643,0.300643,0.300643,0.300643,0.300643,0.300643,0.300643,0.300643,0.300643,
   **   ~~~   ** Air System Named = CENTRAL SYSTEM did not converge for energy
   **   ~~~   ** Check values should be zero. Most Recent values listed first.
   **   ~~~   ** Demand-to-Supply interface energy check value iteration history trace: 7223.931006,7223.931008,7223.931010,7223.931012,7223.931014,7223.931016,7223.931018,7223.931020,7223.931022,7223.931024,
   **   ~~~   ** Supply-to-demand interface deck 1 energy check value iteration history trace: 3962.511032,3962.511034,3962.511035,3962.511036,3962.511037,3962.511038,3962.511039,3962.511040,3962.511041,3962.511043,
   ** Warning ** SimHVAC: Maximum iterations (20) exceeded for all HVAC loops, at ANNUAL, 12/21 08:00 - 08:15
   **   ~~~   ** The solution for one or more of the Air Loop HVAC systems did not appear to converge
   **   ~~~   ** Air System Named = CENTRAL SYSTEM did not converge for mass flow rate
   **   ~~~   ** Check values should be zero. Most Recent values listed first.
   **   ~~~   ** Demand-to-Supply interface mass flow rate check value iteration history trace: 6.568664E-002,6.568664E-002,6.568664E-002,6.568664E-002,6.568664E-002,6.568664E-002,6.568664E-002,6.568664E-002,6.568664E-002,6.568664E-002,
   **   ~~~   ** Supply-to-demand interface deck 1 mass flow rate check value iteration history trace: 6.568664E-002,6.568664E-002,6.568664E-002,6.568664E-002,6.568664E-002,6.568664E-002,6.568664E-002,6.568664E-002,6.568664E-002,6.568664E-002,
   **   ~~~   ** Air System Named = CENTRAL SYSTEM did not converge for energy
   **   ~~~   ** Check values should be zero. Most Recent values listed first.
   **   ~~~   ** Demand-to-Supply interface energy check value iteration history trace: 1301.621690,1301.621690,1301.621690,1301.621690,1301.621690,1301.621689,1301.621689,1301.621689,1301.621689,1301.621689,
   **   ~~~   ** Supply-to-demand interface deck 1 energy check value iteration history trace: 2285.799906,2285.799905,2285.799905,2285.799905,2285.799905,2285.799905,2285.799905,2285.799905,2285.799905,2285.799905,
   ************* Simulation Error Summary *************
   ** Warning ** The following Report Variables were requested but not generated -- check.rdd file
   **   ~~~   ** Either the IDF did not contain these elements, the variable name is misspelled,
   **   ~~~   ** or the requested variable is an advanced output which requires Output : Diagnostics, DisplayAdvancedReportVariables;
   ************* Key=*, VarName=BASEBOARD TOTAL HEATING ENERGY, Frequency=
   ************* Key=*, VarName=WATER HEATER NATURALGAS ENERGY, Frequency=
   ************* Key=*, VarName=COOLING COIL TOTAL HEATING ENERGY, Frequency=
   ************* There are 34 unused schedules in input.
   ************* There are 388 unused week schedules in input.
   ************* There are 396 unused day schedules in input.
   ************* Use Output:Diagnostics,DisplayUnusedSchedules; to see them.
   *************
   ************* ===== Recurring Error Summary =====
   ************* The following recurring error messages occurred.
   *************
   *************  ** Warning ** "TOTAL HOT WATER LOAD" - Target water temperature should be less than or equal to the hot water temperature error continues...
   *************  **   ~~~   **   This error occurred 64341 total times;
   *************  **   ~~~   **   during Warmup 0 times;
   *************  **   ~~~   **   during Sizing 0 times.
   *************  **   ~~~   **   Max=6.172565  Min=9.333860E-004
   *************
   *************
   ************* ===== Final Error Summary =====
   ************* The following error categories occurred.  Consider correcting or noting.
   ************* Nominally Unused Constructions
   ************* ..The nominally unused constructions warning is provided to alert you to potential conditions that can cause
   ************* ..extra time during simulation. Each construction is calculated by the algorithm indicated in the HeatBalanceAlgorithm
   ************* ..object. You may remove the constructions indicated (when you use the DisplayExtraWarnings option).
   *************
   ************* EnergyPlus Warmup Error Summary. During Warmup: 1 Warning; 0 Severe Errors.
   ************* EnergyPlus Sizing Error Summary. During Sizing: 4 Warning; 0 Severe Errors.
   ************* EnergyPlus Completed Successfully-- 64368 Warning; 0 Severe Errors; Elapsed Time=00hr 01min 42.91sec
