Program Version,EnergyPlus, Version 22.2.0-c249759bad, YMD=2023.09.01 19:10,
   ************* Beginning Zone Sizing Calculations
   ** Warning ** ProcessScheduleInput: Schedule:Constant="ALWAYS ON DISCRETE", Schedule Type Limits Name="ONOFF" not found -- will not be validated
   ** Warning ** Foundation:Kiva="KIVA FOUNDATION", no Interior Horizontal Insulation Material Name defined
   **   ~~~   ** Interior Horizontal Insulation Depth will not be used.
   ** Warning ** CheckUsedConstructions: There are 15 nominally unused constructions in input.
   **   ~~~   ** Each Unused construction is shown.
   ************* Construction=INTERIOR FLOOR
   ************* Construction=INTERIOR WINDOW
   ************* Construction=EXTERIOR DOOR
   ************* Construction=INTERIOR DOOR
   ************* Construction=GABLE CONSTRUCTION
   ************* Construction=CRAWL_FLOOR
   ************* Construction=INSULATED PIPE
   ************* Construction=PLAIN PIPE
   ************* Construction=TDD PIPE
   ************* Construction=TDD DOME
   ************* Construction=TDD DIFFUSER
   ************* Construction=CRAWL WALL
   ************* Construction=CEILING-FLOOR-LAYER
   ************* Construction=SLAB CONSTRUCTION W FULL R10 INSULATION
   ************* Construction=SLAB CONSTRUCTION W FULL R5 INSULATION
   ** Warning ** GetDXCoils: Coil:Heating:DX:SingleSpeed="DX_HEATING_COIL" curve values
   **   ~~~   ** ... Defrost Energy Input Ratio Function of Temperature Curve Name = DEFROSTEIR output is not equal to 1.0 (+ or - 10%) at rated conditions.
   **   ~~~   ** ... Curve output at rated conditions = 0.152
   ************* Beginning System Sizing Calculations
   ************* Beginning Plant Sizing Calculations
   ** Warning ** SizeDXCoil Coil:Cooling:DX:SingleSpeed DX_COOLING_COIL
   **   ~~~   ** ...Gross Rated Total Cooling Capacity [W] will be limited by the maximum rated volume flow per rated total capacity ratio.
   **   ~~~   ** ...DX coil volume flow rate ( m3/s ) = 0.425718
   **   ~~~   ** ...Requested capacity ( W ) = 6608.696
   **   ~~~   ** ...Requested flow/capacity ratio ( m3/s/W ) = 6.441E-005
   **   ~~~   ** ...Maximum flow/capacity ratio ( m3/s/W ) = 6.041E-005
   **   ~~~   ** ...Adjusted capacity ( W ) = 7047.149
   ** Warning ** Coil:WaterHeating:AirToWaterHeatPump:Wrapped "HEAT PUMP WATER HEATER EVAPORATOR": Rated air volume flow rate per watt of rated total water heating capacity is out of range
   **   ~~~   ** Min Rated Vol Flow Per Watt=[4.027E-005], Rated Vol Flow Per Watt=[1.510E-004], Max Rated Vol Flow Per Watt=[8.056E-005]. See Input-Output Reference Manual for valid range.
   ************* SizeFan: : Potential issue with equipment sizing for Fan:OnOff HEAT PUMP WATER HEATER FAN
   **   ~~~   ** User-Specified Maximum Flow Rate [m3/s] = 0.22653
   **   ~~~   ** differs from Design Size Maximum Flow Rate [m3/s] = 7.55250E-002
   **   ~~~   ** This may, or may not, indicate mismatched component sizes.
   **   ~~~   ** Verify that the value entered is intended and is consistent with other components.
   ** Warning ** Water heater = WATER HEATER TANK:  Recovery Efficiency and Energy Factor could not be calculated during the test for standard ratings
   **   ~~~   ** Setpoint was never recovered and/or heater never turned on
   ** Warning ** Check input. Pump nominal power or motor efficiency is set to 0, for pump=MAINS PRESSURE
   ** Warning ** Output:Meter: invalid Key Name="ELECTRIC_RANGE:INTERIOREQUIPMENT:ELECTRICITY" - not found.
   ** Warning ** Output:Meter: invalid Key Name="ELECTRIC_DRYER:INTERIOREQUIPMENT:ELECTRICITY" - not found.
   ** Warning ** Output:Meter: invalid Key Name="HEATRECOVERY:ELECTRICITY" - not found.
   ** Warning ** Output:Meter: invalid Key Name="HEATING:NATURALGAS" - not found.
   ** Warning ** Output:Meter: invalid Key Name="WATERSYSTEMS:NATURALGAS" - not found.
   ** Warning ** Output:Meter: invalid Key Name="PROPANE:FACILITY" - not found.
   ** Warning ** Output:Meter: invalid Key Name="HEATING:PROPANE" - not found.
   ************* Testing Individual Branch Integrity
   ************* All Branches passed integrity testing
   ************* Testing Individual Supply Air Path Integrity
   ************* All Supply Air Paths passed integrity testing
   ************* Testing Individual Return Air Path Integrity
   ************* All Return Air Paths passed integrity testing
   ************* No node connection errors were found.
   ************* Beginning Simulation
   ** Warning ** AirflowNetwork::Solver::validate_distribution: Heat pump water heater is simulated along with an AirflowNetwork but is not included in the AirflowNetwork.
   ** Warning ** CalcEquipmentFlowRates: "TOTAL HOT WATER LOAD" - Target water temperature is greater than the hot water temperature by (1.45 C)
   **   ~~~   **  Environment=EXTREME_WINTER, at Simulation time=02/10 06:45 - 07:00
   **   ~~~   ** ...target water temperature     = 53.33 C
   **   ~~~   ** ...hot water temperature        = 51.88 C
   **   ~~~   ** ...Target water temperature should be less than or equal to the hot water temperature. Verify temperature setpoints and schedules.
   ** Warning ** SimHVAC: Maximum iterations (20) exceeded for all HVAC loops, at ANNUAL, 01/23 13:30 - 13:35
   **   ~~~   ** The solution for one or more of the Air Loop HVAC systems did not appear to converge
   **   ~~~   ** Air System Named = CENTRAL SYSTEM did not converge for mass flow rate
   **   ~~~   ** Check values should be zero. Most Recent values listed first.
   **   ~~~   ** Demand-to-Supply interface mass flow rate check value iteration history trace: 6.002073E-002,6.002073E-002,6.002073E-002,6.002073E-002,6.002073E-002,6.002073E-002,6.002073E-002,6.002073E-002,6.002073E-002,6.002073E-002,
   **   ~~~   ** Supply-to-demand interface deck 1 mass flow rate check value iteration history trace: 6.002073E-002,6.002073E-002,6.002073E-002,6.002073E-002,6.002073E-002,6.002073E-002,6.002073E-002,6.002073E-002,6.002073E-002,6.002073E-002,
   **   ~~~   ** Air System Named = CENTRAL SYSTEM did not converge for energy
   **   ~~~   ** Check values should be zero. Most Recent values listed first.
   **   ~~~   ** Demand-to-Supply interface energy check value iteration history trace: 1189.387734,1189.387734,1189.387734,1189.387734,1189.387734,1189.387734,1189.387734,1189.387734,1189.387734,1189.387734,
   **   ~~~   ** Supply-to-demand interface deck 1 energy check value iteration history trace: 2018.810212,2018.810212,2018.810212,2018.810212,2018.810211,2018.810211,2018.810211,2018.810211,2018.810211,2018.810211,
   ** Warning ** SimHVAC: Maximum iterations (20) exceeded for all HVAC loops, at ANNUAL, 02/02 10:45 - 10:49
   **   ~~~   ** The solution for one or more of the Air Loop HVAC systems did not appear to converge
   **   ~~~   ** Air System Named = CENTRAL SYSTEM did not converge for mass flow rate
   **   ~~~   ** Check values should be zero. Most Recent values listed first.
   **   ~~~   ** Demand-to-Supply interface mass flow rate check value iteration history trace: 6.073365E-002,6.073365E-002,6.073365E-002,6.073365E-002,6.073365E-002,6.073365E-002,6.073365E-002,6.073365E-002,6.073365E-002,6.073365E-002,
   **   ~~~   ** Supply-to-demand interface deck 1 mass flow rate check value iteration history trace: 6.073365E-002,6.073365E-002,6.073365E-002,6.073365E-002,6.073365E-002,6.073365E-002,6.073365E-002,6.073365E-002,6.073365E-002,6.073365E-002,
   **   ~~~   ** Air System Named = CENTRAL SYSTEM did not converge for energy
   **   ~~~   ** Check values should be zero. Most Recent values listed first.
   **   ~~~   ** Demand-to-Supply interface energy check value iteration history trace: 1201.559821,1201.559821,1201.559821,1201.559821,1201.559821,1201.559821,1201.559821,1201.559821,1201.559821,1201.559821,
   **   ~~~   ** Supply-to-demand interface deck 1 energy check value iteration history trace: 2136.679429,2136.679428,2136.679428,2136.679428,2136.679428,2136.679428,2136.679428,2136.679428,2136.679428,2136.679428,
   ** Warning ** SimHVAC: Maximum iterations (20) exceeded for all HVAC loops, at ANNUAL, 02/23 07:45 - 08:00
   **   ~~~   ** The solution for one or more of the Air Loop HVAC systems did not appear to converge
   **   ~~~   ** Air System Named = CENTRAL SYSTEM did not converge for mass flow rate
   **   ~~~   ** Check values should be zero. Most Recent values listed first.
   **   ~~~   ** Demand-to-Supply interface mass flow rate check value iteration history trace: 4.356576E-002,4.356576E-002,4.356576E-002,4.356576E-002,4.356576E-002,4.356576E-002,4.356576E-002,4.356576E-002,4.356576E-002,4.356576E-002,
   **   ~~~   ** Supply-to-demand interface deck 1 mass flow rate check value iteration history trace: 4.356576E-002,4.356576E-002,4.356576E-002,4.356576E-002,4.356576E-002,4.356576E-002,4.356576E-002,4.356576E-002,4.356576E-002,4.356576E-002,
   **   ~~~   ** Air System Named = CENTRAL SYSTEM did not converge for energy
   **   ~~~   ** Check values should be zero. Most Recent values listed first.
   **   ~~~   ** Demand-to-Supply interface energy check value iteration history trace: 863.305534,863.305534,863.305534,863.305534,863.305534,863.305534,863.305534,863.305534,863.305534,863.305534,
   **   ~~~   ** Supply-to-demand interface deck 1 energy check value iteration history trace: 1495.122604,1495.122604,1495.122604,1495.122604,1495.122604,1495.122604,1495.122604,1495.122604,1495.122604,1495.122604,
   ** Warning ** SimHVAC: Maximum iterations (20) exceeded for all HVAC loops, at ANNUAL, 03/24 04:00 - 04:15
   **   ~~~   ** The solution for one or more of the Air Loop HVAC systems did not appear to converge
   **   ~~~   ** Air System Named = CENTRAL SYSTEM did not converge for mass flow rate
   **   ~~~   ** Check values should be zero. Most Recent values listed first.
   **   ~~~   ** Demand-to-Supply interface mass flow rate check value iteration history trace: 7.386855E-002,7.386855E-002,7.386855E-002,7.386855E-002,7.386855E-002,7.386855E-002,7.386855E-002,7.386855E-002,7.386855E-002,7.386855E-002,
   **   ~~~   ** Supply-to-demand interface deck 1 mass flow rate check value iteration history trace: 7.386855E-002,7.386855E-002,7.386855E-002,7.386855E-002,7.386855E-002,7.386855E-002,7.386855E-002,7.386855E-002,7.386855E-002,7.386855E-002,
   **   ~~~   ** Air System Named = CENTRAL SYSTEM did not converge for energy
   **   ~~~   ** Check values should be zero. Most Recent values listed first.
   **   ~~~   ** Demand-to-Supply interface energy check value iteration history trace: 1378.272504,1378.272503,1378.272503,1378.272503,1378.272503,1378.272503,1378.272503,1378.272503,1378.272503,1378.272503,
   **   ~~~   ** Supply-to-demand interface deck 1 energy check value iteration history trace: 2149.666800,2149.666800,2149.666800,2149.666800,2149.666800,2149.666799,2149.666799,2149.666799,2149.666799,2149.666799,
   ** Warning ** SimHVAC: Maximum iterations (20) exceeded for all HVAC loops, at ANNUAL, 03/27 05:10 - 05:15
   **   ~~~   ** The solution for one or more of the Air Loop HVAC systems did not appear to converge
   **   ~~~   ** Air System Named = CENTRAL SYSTEM did not converge for mass flow rate
   **   ~~~   ** Check values should be zero. Most Recent values listed first.
   **   ~~~   ** Demand-to-Supply interface mass flow rate check value iteration history trace: 6.757814E-002,6.757814E-002,6.757814E-002,6.757814E-002,6.757814E-002,6.757814E-002,6.757814E-002,6.757814E-002,6.757814E-002,6.757814E-002,
   **   ~~~   ** Supply-to-demand interface deck 1 mass flow rate check value iteration history trace: 6.757814E-002,6.757814E-002,6.757814E-002,6.757814E-002,6.757814E-002,6.757814E-002,6.757814E-002,6.757814E-002,6.757814E-002,6.757814E-002,
   **   ~~~   ** Air System Named = CENTRAL SYSTEM did not converge for energy
   **   ~~~   ** Check values should be zero. Most Recent values listed first.
   **   ~~~   ** Demand-to-Supply interface energy check value iteration history trace: 1339.766575,1339.766575,1339.766575,1339.766575,1339.766575,1339.766575,1339.766575,1339.766575,1339.766575,1339.766575,
   **   ~~~   ** Supply-to-demand interface deck 1 energy check value iteration history trace: 2102.724891,2102.724891,2102.724890,2102.724890,2102.724890,2102.724890,2102.724890,2102.724890,2102.724890,2102.724890,
   ** Warning ** SimHVAC: Maximum iterations (20) exceeded for all HVAC loops, at ANNUAL, 03/27 09:05 - 09:08
   **   ~~~   ** The solution for one or more of the Air Loop HVAC systems did not appear to converge
   **   ~~~   ** Air System Named = CENTRAL SYSTEM did not converge for mass flow rate
   **   ~~~   ** Check values should be zero. Most Recent values listed first.
   **   ~~~   ** Demand-to-Supply interface mass flow rate check value iteration history trace: 5.580797E-002,5.580797E-002,5.580797E-002,5.580797E-002,5.580797E-002,5.580797E-002,5.580797E-002,5.580797E-002,5.580797E-002,5.580797E-002,
   **   ~~~   ** Supply-to-demand interface deck 1 mass flow rate check value iteration history trace: 5.580797E-002,5.580797E-002,5.580797E-002,5.580797E-002,5.580797E-002,5.580797E-002,5.580797E-002,5.580797E-002,5.580797E-002,5.580797E-002,
   **   ~~~   ** Air System Named = CENTRAL SYSTEM did not converge for energy
   **   ~~~   ** Check values should be zero. Most Recent values listed first.
   **   ~~~   ** Demand-to-Supply interface energy check value iteration history trace: 1099.650463,1099.650463,1099.650463,1099.650463,1099.650463,1099.650463,1099.650463,1099.650463,1099.650463,1099.650463,
   **   ~~~   ** Supply-to-demand interface deck 1 energy check value iteration history trace: 2023.622578,2023.622578,2023.622578,2023.622578,2023.622578,2023.622578,2023.622578,2023.622578,2023.622578,2023.622578,
   ** Warning ** SimHVAC: Maximum iterations (20) exceeded for all HVAC loops, at ANNUAL, 04/14 12:53 - 13:00
   **   ~~~   ** The solution for one or more of the Air Loop HVAC systems did not appear to converge
   **   ~~~   ** Air System Named = CENTRAL SYSTEM did not converge for mass flow rate
   **   ~~~   ** Check values should be zero. Most Recent values listed first.
   **   ~~~   ** Demand-to-Supply interface mass flow rate check value iteration history trace: 1.869583E-002,1.869583E-002,1.869583E-002,1.869583E-002,1.869583E-002,1.869583E-002,1.869583E-002,1.869583E-002,1.869583E-002,1.869583E-002,
   **   ~~~   ** Supply-to-demand interface deck 1 mass flow rate check value iteration history trace: 1.869583E-002,1.869583E-002,1.869583E-002,1.869583E-002,1.869583E-002,1.869583E-002,1.869583E-002,1.869583E-002,1.869583E-002,1.869583E-002,
   **   ~~~   ** Air System Named = CENTRAL SYSTEM did not converge for energy
   **   ~~~   ** Check values should be zero. Most Recent values listed first.
   **   ~~~   ** Demand-to-Supply interface energy check value iteration history trace: 439.008165,439.008165,439.008165,439.008165,439.008165,439.008165,439.008165,439.008166,439.008166,439.008166,
   **   ~~~   ** Supply-to-demand interface deck 1 energy check value iteration history trace: 235.657805,235.657805,235.657805,235.657806,235.657806,235.657806,235.657806,235.657806,235.657806,235.657806,
   ** Warning ** SimHVAC: Maximum iterations (20) exceeded for all HVAC loops, at ANNUAL, 04/16 08:30 - 08:45
   **   ~~~   ** The solution for one or more of the Air Loop HVAC systems did not appear to converge
   **   ~~~   ** Air System Named = CENTRAL SYSTEM did not converge for mass flow rate
   **   ~~~   ** Check values should be zero. Most Recent values listed first.
   **   ~~~   ** Demand-to-Supply interface mass flow rate check value iteration history trace: 7.312498E-002,7.312498E-002,7.312498E-002,7.312498E-002,7.312498E-002,7.312498E-002,7.312498E-002,7.312498E-002,7.312498E-002,7.312498E-002,
   **   ~~~   ** Supply-to-demand interface deck 1 mass flow rate check value iteration history trace: 7.312498E-002,7.312498E-002,7.312498E-002,7.312498E-002,7.312498E-002,7.312498E-002,7.312498E-002,7.312498E-002,7.312498E-002,7.312498E-002,
   **   ~~~   ** Air System Named = CENTRAL SYSTEM did not converge for energy
   **   ~~~   ** Check values should be zero. Most Recent values listed first.
   **   ~~~   ** Demand-to-Supply interface energy check value iteration history trace: 1448.747763,1448.747763,1448.747763,1448.747763,1448.747763,1448.747763,1448.747763,1448.747762,1448.747762,1448.747762,
   **   ~~~   ** Supply-to-demand interface deck 1 energy check value iteration history trace: 2487.736554,2487.736554,2487.736554,2487.736554,2487.736554,2487.736554,2487.736553,2487.736553,2487.736553,2487.736553,
   ** Warning ** SimHVAC: Maximum iterations (20) exceeded for all HVAC loops, at ANNUAL, 04/16 08:45 - 09:00
   **   ~~~   ** The solution for one or more of the Air Loop HVAC systems did not appear to converge
   **   ~~~   ** Air System Named = CENTRAL SYSTEM did not converge for mass flow rate
   **   ~~~   ** Check values should be zero. Most Recent values listed first.
   **   ~~~   ** Demand-to-Supply interface mass flow rate check value iteration history trace: 6.979122E-002,6.979122E-002,6.979122E-002,6.979122E-002,6.979122E-002,6.979122E-002,6.979122E-002,6.979122E-002,6.979122E-002,6.979122E-002,
   **   ~~~   ** Supply-to-demand interface deck 1 mass flow rate check value iteration history trace: 6.979122E-002,6.979122E-002,6.979122E-002,6.979122E-002,6.979122E-002,6.979122E-002,6.979122E-002,6.979122E-002,6.979122E-002,6.979122E-002,
   **   ~~~   ** Air System Named = CENTRAL SYSTEM did not converge for energy
   **   ~~~   ** Check values should be zero. Most Recent values listed first.
   **   ~~~   ** Demand-to-Supply interface energy check value iteration history trace: 1377.394669,1377.394669,1377.394669,1377.394669,1377.394669,1377.394669,1377.394669,1377.394669,1377.394669,1377.394668,
   **   ~~~   ** Supply-to-demand interface deck 1 energy check value iteration history trace: 2379.632217,2379.632217,2379.632217,2379.632217,2379.632216,2379.632216,2379.632216,2379.632216,2379.632216,2379.632216,
   ** Warning ** SimHVAC: Maximum iterations (20) exceeded for all HVAC loops, at ANNUAL, 04/20 06:15 - 06:30
   **   ~~~   ** The solution for one or more of the Air Loop HVAC systems did not appear to converge
   **   ~~~   ** Air System Named = CENTRAL SYSTEM did not converge for mass flow rate
   **   ~~~   ** Check values should be zero. Most Recent values listed first.
   **   ~~~   ** Demand-to-Supply interface mass flow rate check value iteration history trace: 2.857837E-002,2.857837E-002,2.857837E-002,2.857837E-002,2.857837E-002,2.857837E-002,2.857837E-002,2.857837E-002,2.857837E-002,2.857837E-002,
   **   ~~~   ** Supply-to-demand interface deck 1 mass flow rate check value iteration history trace: 2.857837E-002,2.857837E-002,2.857837E-002,2.857837E-002,2.857837E-002,2.857837E-002,2.857837E-002,2.857837E-002,2.857837E-002,2.857837E-002,
   **   ~~~   ** Air System Named = CENTRAL SYSTEM did not converge for energy
   **   ~~~   ** Check values should be zero. Most Recent values listed first.
   **   ~~~   ** Demand-to-Supply interface energy check value iteration history trace: 565.531036,565.531036,565.531036,565.531036,565.531036,565.531036,565.531036,565.531036,565.531036,565.531036,
   **   ~~~   ** Supply-to-demand interface deck 1 energy check value iteration history trace: 1013.460449,1013.460449,1013.460449,1013.460449,1013.460449,1013.460448,1013.460448,1013.460448,1013.460448,1013.460448,
   ** Warning ** SimHVAC: Maximum iterations (20) exceeded for all HVAC loops, at ANNUAL, 11/12 21:08 - 21:15
   **   ~~~   ** The solution for one or more of the Air Loop HVAC systems did not appear to converge
   **   ~~~   ** Air System Named = CENTRAL SYSTEM did not converge for mass flow rate
   **   ~~~   ** Check values should be zero. Most Recent values listed first.
   **   ~~~   ** Demand-to-Supply interface mass flow rate check value iteration history trace: 0.138221,0.138221,0.138221,0.138221,0.138221,0.138221,0.138221,0.138221,0.138221,0.138221,
   **   ~~~   ** Supply-to-demand interface deck 1 mass flow rate check value iteration history trace: 0.138221,0.138221,0.138221,0.138221,0.138221,0.138221,0.138221,0.138221,0.138221,0.138221,
   **   ~~~   ** Air System Named = CENTRAL SYSTEM did not converge for energy
   **   ~~~   ** Check values should be zero. Most Recent values listed first.
   **   ~~~   ** Demand-to-Supply interface energy check value iteration history trace: 3286.820790,3286.820790,3286.820790,3286.820790,3286.820791,3286.820791,3286.820791,3286.820791,3286.820791,3286.820792,
   **   ~~~   ** Supply-to-demand interface deck 1 energy check value iteration history trace: 1420.549508,1420.549508,1420.549508,1420.549508,1420.549508,1420.549509,1420.549509,1420.549509,1420.549509,1420.549509,
   ** Warning ** SimHVAC: Maximum iterations (20) exceeded for all HVAC loops, at ANNUAL, 11/15 11:00 - 11:15
   **   ~~~   ** The solution for one or more of the Air Loop HVAC systems did not appear to converge
   **   ~~~   ** Air System Named = CENTRAL SYSTEM did not converge for mass flow rate
   **   ~~~   ** Check values should be zero. Most Recent values listed first.
   **   ~~~   ** Demand-to-Supply interface mass flow rate check value iteration history trace: 0.107736,0.107736,0.107736,0.107736,0.107736,0.107736,0.107736,0.107736,0.107736,0.107736,
   **   ~~~   ** Supply-to-demand interface deck 1 mass flow rate check value iteration history trace: 0.107736,0.107736,0.107736,0.107736,0.107736,0.107736,0.107736,0.107736,0.107736,0.107736,
   **   ~~~   ** Air System Named = CENTRAL SYSTEM did not converge for energy
   **   ~~~   ** Check values should be zero. Most Recent values listed first.
   **   ~~~   ** Demand-to-Supply interface energy check value iteration history trace: 2571.519059,2571.519060,2571.519060,2571.519061,2571.519061,2571.519062,2571.519062,2571.519062,2571.519063,2571.519063,
   **   ~~~   ** Supply-to-demand interface deck 1 energy check value iteration history trace: 1193.042155,1193.042156,1193.042156,1193.042156,1193.042156,1193.042156,1193.042157,1193.042157,1193.042157,1193.042157,
   ** Warning ** SimHVAC: Maximum iterations (20) exceeded for all HVAC loops, at ANNUAL, 11/18 20:00 - 20:15
   **   ~~~   ** The solution for one or more of the Air Loop HVAC systems did not appear to converge
   **   ~~~   ** Air System Named = CENTRAL SYSTEM did not converge for mass flow rate
   **   ~~~   ** Check values should be zero. Most Recent values listed first.
   **   ~~~   ** Demand-to-Supply interface mass flow rate check value iteration history trace: 4.920242E-002,4.920242E-002,4.920242E-002,4.920242E-002,4.920242E-002,4.920242E-002,4.920242E-002,4.920242E-002,4.920242E-002,4.920242E-002,
   **   ~~~   ** Supply-to-demand interface deck 1 mass flow rate check value iteration history trace: 4.920242E-002,4.920242E-002,4.920242E-002,4.920242E-002,4.920242E-002,4.920242E-002,4.920242E-002,4.920242E-002,4.920242E-002,4.920242E-002,
   **   ~~~   ** Air System Named = CENTRAL SYSTEM did not converge for energy
   **   ~~~   ** Check values should be zero. Most Recent values listed first.
   **   ~~~   ** Demand-to-Supply interface energy check value iteration history trace: 1159.466112,1159.466112,1159.466113,1159.466113,1159.466113,1159.466113,1159.466113,1159.466113,1159.466113,1159.466113,
   **   ~~~   ** Supply-to-demand interface deck 1 energy check value iteration history trace: 499.495007,499.495007,499.495007,499.495007,499.495007,499.495007,499.495007,499.495007,499.495007,499.495007,
   ** Warning ** SimHVAC: Maximum iterations (20) exceeded for all HVAC loops, at ANNUAL, 12/13 09:51 - 09:54
   **   ~~~   ** The solution for one or more of the Air Loop HVAC systems did not appear to converge
   **   ~~~   ** Air System Named = CENTRAL SYSTEM did not converge for mass flow rate
   **   ~~~   ** Check values should be zero. Most Recent values listed first.
   **   ~~~   ** Demand-to-Supply interface mass flow rate check value iteration history trace: 6.008220E-002,6.008220E-002,6.008220E-002,6.008220E-002,6.008220E-002,6.008220E-002,6.008220E-002,6.008220E-002,6.008220E-002,6.008220E-002,
   **   ~~~   ** Supply-to-demand interface deck 1 mass flow rate check value iteration history trace: 6.008220E-002,6.008220E-002,6.008220E-002,6.008220E-002,6.008220E-002,6.008220E-002,6.008220E-002,6.008220E-002,6.008220E-002,6.008220E-002,
   **   ~~~   ** Air System Named = CENTRAL SYSTEM did not converge for energy
   **   ~~~   ** Check values should be zero. Most Recent values listed first.
   **   ~~~   ** Demand-to-Supply interface energy check value iteration history trace: 1183.633048,1183.633048,1183.633048,1183.633048,1183.633048,1183.633048,1183.633048,1183.633048,1183.633048,1183.633047,
   **   ~~~   ** Supply-to-demand interface deck 1 energy check value iteration history trace: 2118.379529,2118.379529,2118.379528,2118.379528,2118.379528,2118.379528,2118.379528,2118.379528,2118.379528,2118.379528,
   ************* Simulation Error Summary *************
   ** Warning ** The following Report Variables were requested but not generated -- check.rdd file
   **   ~~~   ** Either the IDF did not contain these elements, the variable name is misspelled,
   **   ~~~   ** or the requested variable is an advanced output which requires Output : Diagnostics, DisplayAdvancedReportVariables;
   ************* Key=*, VarName=BASEBOARD TOTAL HEATING ENERGY, Frequency=
   ************* Key=*, VarName=WATER HEATER NATURALGAS ENERGY, Frequency=
   ************* Key=*, VarName=COOLING COIL TOTAL HEATING ENERGY, Frequency=
   ************* There are 34 unused schedules in input.
   ************* There are 388 unused week schedules in input.
   ************* There are 397 unused day schedules in input.
   ************* Use Output:Diagnostics,DisplayUnusedSchedules; to see them.
   *************
   ************* ===== Recurring Error Summary =====
   ************* The following recurring error messages occurred.
   *************
   *************  ** Warning ** "TOTAL HOT WATER LOAD" - Target water temperature should be less than or equal to the hot water temperature error continues...
   *************  **   ~~~   **   This error occurred 109993 total times;
   *************  **   ~~~   **   during Warmup 0 times;
   *************  **   ~~~   **   during Sizing 0 times.
   *************  **   ~~~   **   Max=9.611669  Min=4.516501E-004
   *************
   *************
   ************* ===== Final Error Summary =====
   ************* The following error categories occurred.  Consider correcting or noting.
   ************* Nominally Unused Constructions
   ************* ..The nominally unused constructions warning is provided to alert you to potential conditions that can cause
   ************* ..extra time during simulation. Each construction is calculated by the algorithm indicated in the HeatBalanceAlgorithm
   ************* ..object. You may remove the constructions indicated (when you use the DisplayExtraWarnings option).
   *************
   ************* EnergyPlus Warmup Error Summary. During Warmup: 1 Warning; 0 Severe Errors.
   ************* EnergyPlus Sizing Error Summary. During Sizing: 4 Warning; 0 Severe Errors.
   ************* EnergyPlus Completed Successfully-- 110025 Warning; 0 Severe Errors; Elapsed Time=00hr 01min 38.39sec
