Program Version,EnergyPlus, Version 22.2.0-c249759bad, YMD=2023.09.01 19:43,
   ************* Beginning Zone Sizing Calculations
   ** Warning ** ProcessScheduleInput: Schedule:Constant="ALWAYS ON DISCRETE", Schedule Type Limits Name="ONOFF" not found -- will not be validated
   ** Warning ** Foundation:Kiva="KIVA FOUNDATION", no Interior Horizontal Insulation Material Name defined
   **   ~~~   ** Interior Horizontal Insulation Depth will not be used.
   ** Warning ** CheckUsedConstructions: There are 15 nominally unused constructions in input.
   **   ~~~   ** Each Unused construction is shown.
   ************* Construction=INTERIOR FLOOR
   ************* Construction=INTERIOR WINDOW
   ************* Construction=EXTERIOR DOOR
   ************* Construction=INTERIOR DOOR
   ************* Construction=GABLE CONSTRUCTION
   ************* Construction=CRAWL_FLOOR
   ************* Construction=INSULATED PIPE
   ************* Construction=PLAIN PIPE
   ************* Construction=TDD PIPE
   ************* Construction=TDD DOME
   ************* Construction=TDD DIFFUSER
   ************* Construction=CRAWL WALL
   ************* Construction=CEILING-FLOOR-LAYER
   ************* Construction=SLAB CONSTRUCTION W FULL R10 INSULATION
   ************* Construction=SLAB CONSTRUCTION W FULL R5 INSULATION
   ** Warning ** GetDXCoils: Coil:Heating:DX:SingleSpeed="DX_HEATING_COIL" curve values
   **   ~~~   ** ... Defrost Energy Input Ratio Function of Temperature Curve Name = DEFROSTEIR output is not equal to 1.0 (+ or - 10%) at rated conditions.
   **   ~~~   ** ... Curve output at rated conditions = 0.152
   ************* Beginning System Sizing Calculations
   ************* Beginning Plant Sizing Calculations
   ** Warning ** Coil:WaterHeating:AirToWaterHeatPump:Wrapped "HEAT PUMP WATER HEATER EVAPORATOR": Rated air volume flow rate per watt of rated total water heating capacity is out of range
   **   ~~~   ** Min Rated Vol Flow Per Watt=[4.027E-005], Rated Vol Flow Per Watt=[1.510E-004], Max Rated Vol Flow Per Watt=[8.056E-005]. See Input-Output Reference Manual for valid range.
   ************* SizeFan: : Potential issue with equipment sizing for Fan:OnOff HEAT PUMP WATER HEATER FAN
   **   ~~~   ** User-Specified Maximum Flow Rate [m3/s] = 0.22653
   **   ~~~   ** differs from Design Size Maximum Flow Rate [m3/s] = 7.55250E-002
   **   ~~~   ** This may, or may not, indicate mismatched component sizes.
   **   ~~~   ** Verify that the value entered is intended and is consistent with other components.
   ** Warning ** Water heater = WATER HEATER TANK:  Recovery Efficiency and Energy Factor could not be calculated during the test for standard ratings
   **   ~~~   ** Setpoint was never recovered and/or heater never turned on
   ** Warning ** Check input. Pump nominal power or motor efficiency is set to 0, for pump=MAINS PRESSURE
   ** Warning ** Output:Meter: invalid Key Name="ELECTRIC_RANGE:INTERIOREQUIPMENT:ELECTRICITY" - not found.
   ** Warning ** Output:Meter: invalid Key Name="ELECTRIC_DRYER:INTERIOREQUIPMENT:ELECTRICITY" - not found.
   ** Warning ** Output:Meter: invalid Key Name="HEATRECOVERY:ELECTRICITY" - not found.
   ** Warning ** Output:Meter: invalid Key Name="HEATING:NATURALGAS" - not found.
   ** Warning ** Output:Meter: invalid Key Name="WATERSYSTEMS:NATURALGAS" - not found.
   ** Warning ** Output:Meter: invalid Key Name="PROPANE:FACILITY" - not found.
   ** Warning ** Output:Meter: invalid Key Name="HEATING:PROPANE" - not found.
   ************* Testing Individual Branch Integrity
   ************* All Branches passed integrity testing
   ************* Testing Individual Supply Air Path Integrity
   ************* All Supply Air Paths passed integrity testing
   ************* Testing Individual Return Air Path Integrity
   ************* All Return Air Paths passed integrity testing
   ************* No node connection errors were found.
   ************* Beginning Simulation
   ** Warning ** AirflowNetwork::Solver::validate_distribution: Heat pump water heater is simulated along with an AirflowNetwork but is not included in the AirflowNetwork.
   ** Warning ** SimHVAC: Maximum iterations (20) exceeded for all HVAC loops, at EXTREME_WINTER, 01/27 03:30 - 03:45
   **   ~~~   ** The solution for one or more of the Air Loop HVAC systems did not appear to converge
   **   ~~~   ** Air System Named = CENTRAL SYSTEM did not converge for mass flow rate
   **   ~~~   ** Check values should be zero. Most Recent values listed first.
   **   ~~~   ** Demand-to-Supply interface mass flow rate check value iteration history trace: 7.705974E-002,7.705974E-002,7.705974E-002,7.705974E-002,7.705974E-002,7.705974E-002,7.705974E-002,7.705974E-002,7.705974E-002,7.705974E-002,
   **   ~~~   ** Supply-to-demand interface deck 1 mass flow rate check value iteration history trace: 7.705974E-002,7.705974E-002,7.705974E-002,7.705974E-002,7.705974E-002,7.705974E-002,7.705974E-002,7.705974E-002,7.705974E-002,7.705974E-002,
   **   ~~~   ** Air System Named = CENTRAL SYSTEM did not converge for energy
   **   ~~~   ** Check values should be zero. Most Recent values listed first.
   **   ~~~   ** Demand-to-Supply interface energy check value iteration history trace: 1430.136962,1430.136962,1430.136961,1430.136961,1430.136961,1430.136961,1430.136961,1430.136961,1430.136961,1430.136961,
   **   ~~~   ** Supply-to-demand interface deck 1 energy check value iteration history trace: 2222.241008,2222.241008,2222.241008,2222.241007,2222.241007,2222.241007,2222.241007,2222.241007,2222.241007,2222.241007,
   ** Warning ** CalcEquipmentFlowRates: "TOTAL HOT WATER LOAD" - Target water temperature is greater than the hot water temperature by (4.44 C)
   **   ~~~   **  Environment=EXTREME_WINTER, at Simulation time=01/27 06:00 - 06:15
   **   ~~~   ** ...target water temperature     = 53.33 C
   **   ~~~   ** ...hot water temperature        = 48.89 C
   **   ~~~   ** ...Target water temperature should be less than or equal to the hot water temperature. Verify temperature setpoints and schedules.
   ** Warning ** SimHVAC: Maximum iterations (20) exceeded for all HVAC loops, at EXTREME_WINTER, 01/30 08:30 - 08:45
   **   ~~~   ** The solution for one or more of the Air Loop HVAC systems did not appear to converge
   **   ~~~   ** Air System Named = CENTRAL SYSTEM did not converge for mass flow rate
   **   ~~~   ** Check values should be zero. Most Recent values listed first.
   **   ~~~   ** Demand-to-Supply interface mass flow rate check value iteration history trace: 5.198787E-002,5.198787E-002,5.198787E-002,5.198787E-002,5.198787E-002,5.198787E-002,5.198787E-002,5.198787E-002,5.198787E-002,5.198787E-002,
   **   ~~~   ** Supply-to-demand interface deck 1 mass flow rate check value iteration history trace: 5.198787E-002,5.198787E-002,5.198787E-002,5.198787E-002,5.198787E-002,5.198787E-002,5.198787E-002,5.198787E-002,5.198787E-002,5.198787E-002,
   **   ~~~   ** Air System Named = CENTRAL SYSTEM did not converge for energy
   **   ~~~   ** Check values should be zero. Most Recent values listed first.
   **   ~~~   ** Demand-to-Supply interface energy check value iteration history trace: 1029.262173,1029.262172,1029.262172,1029.262172,1029.262172,1029.262172,1029.262172,1029.262172,1029.262172,1029.262172,
   **   ~~~   ** Supply-to-demand interface deck 1 energy check value iteration history trace: 1841.303820,1841.303820,1841.303820,1841.303820,1841.303820,1841.303820,1841.303820,1841.303820,1841.303820,1841.303820,
   ** Warning ** SimHVAC: Maximum iterations (20) exceeded for all HVAC loops, at ANNUAL, 01/01 11:40 - 11:45
   **   ~~~   ** The solution for one or more of the Air Loop HVAC systems did not appear to converge
   **   ~~~   ** Air System Named = CENTRAL SYSTEM did not converge for mass flow rate
   **   ~~~   ** Check values should be zero. Most Recent values listed first.
   **   ~~~   ** Demand-to-Supply interface mass flow rate check value iteration history trace: 5.400994E-002,5.400994E-002,5.400994E-002,5.400994E-002,5.400994E-002,5.400994E-002,5.400994E-002,5.400994E-002,5.400994E-002,5.400994E-002,
   **   ~~~   ** Supply-to-demand interface deck 1 mass flow rate check value iteration history trace: 5.400994E-002,5.400994E-002,5.400994E-002,5.400994E-002,5.400994E-002,5.400994E-002,5.400994E-002,5.400994E-002,5.400994E-002,5.400994E-002,
   **   ~~~   ** Air System Named = CENTRAL SYSTEM did not converge for energy
   **   ~~~   ** Check values should be zero. Most Recent values listed first.
   **   ~~~   ** Demand-to-Supply interface energy check value iteration history trace: 1067.209407,1067.209407,1067.209407,1067.209407,1067.209407,1067.209407,1067.209407,1067.209407,1067.209407,1067.209407,
   **   ~~~   ** Supply-to-demand interface deck 1 energy check value iteration history trace: 1920.098910,1920.098910,1920.098910,1920.098910,1920.098910,1920.098910,1920.098910,1920.098910,1920.098910,1920.098910,
   ** Warning ** SimHVAC: Maximum iterations (20) exceeded for all HVAC loops, at ANNUAL, 02/05 08:15 - 08:30
   **   ~~~   ** The solution for one or more of the Air Loop HVAC systems did not appear to converge
   **   ~~~   ** Air System Named = CENTRAL SYSTEM did not converge for mass flow rate
   **   ~~~   ** Check values should be zero. Most Recent values listed first.
   **   ~~~   ** Demand-to-Supply interface mass flow rate check value iteration history trace: 6.149240E-002,6.149240E-002,6.149240E-002,6.149240E-002,6.149240E-002,6.149240E-002,6.149240E-002,6.149240E-002,6.149240E-002,6.149240E-002,
   **   ~~~   ** Supply-to-demand interface deck 1 mass flow rate check value iteration history trace: 6.149240E-002,6.149240E-002,6.149240E-002,6.149240E-002,6.149240E-002,6.149240E-002,6.149240E-002,6.149240E-002,6.149240E-002,6.149240E-002,
   **   ~~~   ** Air System Named = CENTRAL SYSTEM did not converge for energy
   **   ~~~   ** Check values should be zero. Most Recent values listed first.
   **   ~~~   ** Demand-to-Supply interface energy check value iteration history trace: 1218.428178,1218.428178,1218.428178,1218.428178,1218.428178,1218.428178,1218.428178,1218.428178,1218.428178,1218.428178,
   **   ~~~   ** Supply-to-demand interface deck 1 energy check value iteration history trace: 2083.273409,2083.273409,2083.273409,2083.273409,2083.273409,2083.273409,2083.273409,2083.273408,2083.273408,2083.273408,
   ** Warning ** SimHVAC: Maximum iterations (20) exceeded for all HVAC loops, at ANNUAL, 02/20 08:30 - 08:35
   **   ~~~   ** The solution for one or more of the Air Loop HVAC systems did not appear to converge
   **   ~~~   ** Air System Named = CENTRAL SYSTEM did not converge for mass flow rate
   **   ~~~   ** Check values should be zero. Most Recent values listed first.
   **   ~~~   ** Demand-to-Supply interface mass flow rate check value iteration history trace: 6.790948E-002,6.790948E-002,6.790948E-002,6.790948E-002,6.790948E-002,6.790948E-002,6.790948E-002,6.790948E-002,6.790948E-002,6.790948E-002,
   **   ~~~   ** Supply-to-demand interface deck 1 mass flow rate check value iteration history trace: 6.790948E-002,6.790948E-002,6.790948E-002,6.790948E-002,6.790948E-002,6.790948E-002,6.790948E-002,6.790948E-002,6.790948E-002,6.790948E-002,
   **   ~~~   ** Air System Named = CENTRAL SYSTEM did not converge for energy
   **   ~~~   ** Check values should be zero. Most Recent values listed first.
   **   ~~~   ** Demand-to-Supply interface energy check value iteration history trace: 1337.627644,1337.627643,1337.627643,1337.627643,1337.627643,1337.627643,1337.627643,1337.627643,1337.627643,1337.627643,
   **   ~~~   ** Supply-to-demand interface deck 1 energy check value iteration history trace: 2289.672231,2289.672231,2289.672231,2289.672231,2289.672231,2289.672231,2289.672230,2289.672230,2289.672230,2289.672230,
   ** Warning ** SimHVAC: Maximum iterations (20) exceeded for all HVAC loops, at ANNUAL, 03/12 08:45 - 09:00
   **   ~~~   ** The solution for one or more of the Air Loop HVAC systems did not appear to converge
   **   ~~~   ** Air System Named = CENTRAL SYSTEM did not converge for mass flow rate
   **   ~~~   ** Check values should be zero. Most Recent values listed first.
   **   ~~~   ** Demand-to-Supply interface mass flow rate check value iteration history trace: 8.165739E-002,8.165739E-002,8.165739E-002,8.165739E-002,8.165739E-002,8.165739E-002,8.165739E-002,8.165739E-002,8.165739E-002,8.165739E-002,
   **   ~~~   ** Supply-to-demand interface deck 1 mass flow rate check value iteration history trace: 8.165739E-002,8.165739E-002,8.165739E-002,8.165739E-002,8.165739E-002,8.165739E-002,8.165739E-002,8.165739E-002,8.165739E-002,8.165739E-002,
   **   ~~~   ** Air System Named = CENTRAL SYSTEM did not converge for energy
   **   ~~~   ** Check values should be zero. Most Recent values listed first.
   **   ~~~   ** Demand-to-Supply interface energy check value iteration history trace: 1940.930885,1940.930886,1940.930886,1940.930887,1940.930887,1940.930888,1940.930888,1940.930889,1940.930889,1940.930890,
   **   ~~~   ** Supply-to-demand interface deck 1 energy check value iteration history trace: 1075.337650,1075.337650,1075.337650,1075.337650,1075.337651,1075.337651,1075.337651,1075.337651,1075.337652,1075.337652,
   ** Warning ** SimHVAC: Maximum iterations (20) exceeded for all HVAC loops, at ANNUAL, 03/15 08:54 - 08:56
   **   ~~~   ** The solution for one or more of the Air Loop HVAC systems did not appear to converge
   **   ~~~   ** Air System Named = CENTRAL SYSTEM did not converge for mass flow rate
   **   ~~~   ** Check values should be zero. Most Recent values listed first.
   **   ~~~   ** Demand-to-Supply interface mass flow rate check value iteration history trace: 0.156447,0.156447,0.156447,0.156447,0.156447,0.156447,0.156447,0.156447,0.156447,0.156447,
   **   ~~~   ** Supply-to-demand interface deck 1 mass flow rate check value iteration history trace: 0.156447,0.156447,0.156447,0.156447,0.156447,0.156447,0.156447,0.156447,0.156447,0.156447,
   **   ~~~   ** Air System Named = CENTRAL SYSTEM did not converge for energy
   **   ~~~   ** Check values should be zero. Most Recent values listed first.
   **   ~~~   ** Demand-to-Supply interface energy check value iteration history trace: 3690.609937,3690.609938,3690.609939,3690.609940,3690.609941,3690.609942,3690.609943,3690.609944,3690.609945,3690.609946,
   **   ~~~   ** Supply-to-demand interface deck 1 energy check value iteration history trace: 1994.043821,1994.043821,1994.043822,1994.043822,1994.043823,1994.043823,1994.043824,1994.043824,1994.043825,1994.043825,
   ** Warning ** SimHVAC: Maximum iterations (20) exceeded for all HVAC loops, at ANNUAL, 03/18 10:11 - 10:15
   **   ~~~   ** The solution for one or more of the Air Loop HVAC systems did not appear to converge
   **   ~~~   ** Air System Named = CENTRAL SYSTEM did not converge for mass flow rate
   **   ~~~   ** Check values should be zero. Most Recent values listed first.
   **   ~~~   ** Demand-to-Supply interface mass flow rate check value iteration history trace: 0.170145,0.170145,0.170145,0.170145,0.170145,0.170145,0.170145,0.170145,0.170145,0.170145,
   **   ~~~   ** Supply-to-demand interface deck 1 mass flow rate check value iteration history trace: 0.170145,0.170145,0.170145,0.170145,0.170145,0.170145,0.170145,0.170145,0.170145,0.170145,
   **   ~~~   ** Air System Named = CENTRAL SYSTEM did not converge for energy
   **   ~~~   ** Check values should be zero. Most Recent values listed first.
   **   ~~~   ** Demand-to-Supply interface energy check value iteration history trace: 4038.327657,4038.327658,4038.327658,4038.327658,4038.327659,4038.327659,4038.327659,4038.327660,4038.327660,4038.327660,
   **   ~~~   ** Supply-to-demand interface deck 1 energy check value iteration history trace: 2097.703044,2097.703044,2097.703045,2097.703045,2097.703045,2097.703045,2097.703045,2097.703045,2097.703046,2097.703046,
   ** Warning ** SimHVAC: Maximum iterations (20) exceeded for all HVAC loops, at ANNUAL, 04/02 07:45 - 08:00
   **   ~~~   ** The solution for one or more of the Air Loop HVAC systems did not appear to converge
   **   ~~~   ** Air System Named = CENTRAL SYSTEM did not converge for mass flow rate
   **   ~~~   ** Check values should be zero. Most Recent values listed first.
   **   ~~~   ** Demand-to-Supply interface mass flow rate check value iteration history trace: 5.571448E-002,5.571448E-002,5.571448E-002,5.571448E-002,5.571448E-002,5.571448E-002,5.571448E-002,5.571448E-002,5.571448E-002,5.571448E-002,
   **   ~~~   ** Supply-to-demand interface deck 1 mass flow rate check value iteration history trace: 5.571448E-002,5.571448E-002,5.571448E-002,5.571448E-002,5.571448E-002,5.571448E-002,5.571448E-002,5.571448E-002,5.571448E-002,5.571448E-002,
   **   ~~~   ** Air System Named = CENTRAL SYSTEM did not converge for energy
   **   ~~~   ** Check values should be zero. Most Recent values listed first.
   **   ~~~   ** Demand-to-Supply interface energy check value iteration history trace: 1325.710240,1325.710240,1325.710241,1325.710241,1325.710241,1325.710241,1325.710242,1325.710242,1325.710242,1325.710243,
   **   ~~~   ** Supply-to-demand interface deck 1 energy check value iteration history trace: 783.199554,783.199555,783.199555,783.199555,783.199555,783.199555,783.199555,783.199556,783.199556,783.199556,
   ** Warning ** SimHVAC: Maximum iterations (20) exceeded for all HVAC loops, at ANNUAL, 04/02 08:53 - 08:56
   **   ~~~   ** The solution for one or more of the Air Loop HVAC systems did not appear to converge
   **   ~~~   ** Air System Named = CENTRAL SYSTEM did not converge for mass flow rate
   **   ~~~   ** Check values should be zero. Most Recent values listed first.
   **   ~~~   ** Demand-to-Supply interface mass flow rate check value iteration history trace: 0.226576,0.226576,0.226576,0.226576,0.226576,0.226576,0.226576,0.226576,0.226576,0.226576,
   **   ~~~   ** Supply-to-demand interface deck 1 mass flow rate check value iteration history trace: 0.226576,0.226576,0.226576,0.226576,0.226576,0.226576,0.226576,0.226576,0.226576,0.226576,
   **   ~~~   ** Air System Named = CENTRAL SYSTEM did not converge for energy
   **   ~~~   ** Check values should be zero. Most Recent values listed first.
   **   ~~~   ** Demand-to-Supply interface energy check value iteration history trace: 5391.112672,5391.112673,5391.112674,5391.112675,5391.112676,5391.112678,5391.112679,5391.112680,5391.112681,5391.112682,
   **   ~~~   ** Supply-to-demand interface deck 1 energy check value iteration history trace: 3187.886312,3187.886312,3187.886313,3187.886314,3187.886314,3187.886315,3187.886315,3187.886316,3187.886317,3187.886317,
   ** Warning ** SimHVAC: Maximum iterations (20) exceeded for all HVAC loops, at ANNUAL, 04/08 07:15 - 07:19
   **   ~~~   ** The solution for one or more of the Air Loop HVAC systems did not appear to converge
   **   ~~~   ** Air System Named = CENTRAL SYSTEM did not converge for mass flow rate
   **   ~~~   ** Check values should be zero. Most Recent values listed first.
   **   ~~~   ** Demand-to-Supply interface mass flow rate check value iteration history trace: 9.069383E-002,9.069383E-002,9.069383E-002,9.069383E-002,9.069383E-002,9.069383E-002,9.069383E-002,9.069383E-002,9.069383E-002,9.069383E-002,
   **   ~~~   ** Supply-to-demand interface deck 1 mass flow rate check value iteration history trace: 9.069383E-002,9.069383E-002,9.069383E-002,9.069383E-002,9.069383E-002,9.069383E-002,9.069383E-002,9.069383E-002,9.069383E-002,9.069383E-002,
   **   ~~~   ** Air System Named = CENTRAL SYSTEM did not converge for energy
   **   ~~~   ** Check values should be zero. Most Recent values listed first.
   **   ~~~   ** Demand-to-Supply interface energy check value iteration history trace: 1797.038413,1797.038413,1797.038413,1797.038413,1797.038413,1797.038412,1797.038412,1797.038412,1797.038412,1797.038412,
   **   ~~~   ** Supply-to-demand interface deck 1 energy check value iteration history trace: 2689.703511,2689.703511,2689.703510,2689.703510,2689.703510,2689.703510,2689.703510,2689.703509,2689.703509,2689.703509,
   ** Warning ** SimHVAC: Maximum iterations (20) exceeded for all HVAC loops, at ANNUAL, 12/09 08:30 - 08:45
   **   ~~~   ** The solution for one or more of the Air Loop HVAC systems did not appear to converge
   **   ~~~   ** Air System Named = CENTRAL SYSTEM did not converge for mass flow rate
   **   ~~~   ** Check values should be zero. Most Recent values listed first.
   **   ~~~   ** Demand-to-Supply interface mass flow rate check value iteration history trace: 7.311751E-002,7.311751E-002,7.311751E-002,7.311751E-002,7.311751E-002,7.311751E-002,7.311751E-002,7.311751E-002,7.311751E-002,7.311751E-002,
   **   ~~~   ** Supply-to-demand interface deck 1 mass flow rate check value iteration history trace: 7.311751E-002,7.311751E-002,7.311751E-002,7.311751E-002,7.311751E-002,7.311751E-002,7.311751E-002,7.311751E-002,7.311751E-002,7.311751E-002,
   **   ~~~   ** Air System Named = CENTRAL SYSTEM did not converge for energy
   **   ~~~   ** Check values should be zero. Most Recent values listed first.
   **   ~~~   ** Demand-to-Supply interface energy check value iteration history trace: 1446.974983,1446.974983,1446.974983,1446.974983,1446.974983,1446.974983,1446.974983,1446.974982,1446.974982,1446.974982,
   **   ~~~   ** Supply-to-demand interface deck 1 energy check value iteration history trace: 2452.640792,2452.640792,2452.640791,2452.640791,2452.640791,2452.640791,2452.640791,2452.640791,2452.640791,2452.640791,
   ** Warning ** SimHVAC: Maximum iterations (20) exceeded for all HVAC loops, at ANNUAL, 12/10 13:15 - 13:30
   **   ~~~   ** The solution for one or more of the Air Loop HVAC systems did not appear to converge
   **   ~~~   ** Air System Named = CENTRAL SYSTEM did not converge for mass flow rate
   **   ~~~   ** Check values should be zero. Most Recent values listed first.
   **   ~~~   ** Demand-to-Supply interface mass flow rate check value iteration history trace: 8.842713E-002,8.842713E-002,8.842713E-002,8.842713E-002,8.842713E-002,8.842713E-002,8.842713E-002,8.842713E-002,8.842713E-002,8.842713E-002,
   **   ~~~   ** Supply-to-demand interface deck 1 mass flow rate check value iteration history trace: 8.842713E-002,8.842713E-002,8.842713E-002,8.842713E-002,8.842713E-002,8.842713E-002,8.842713E-002,8.842713E-002,8.842713E-002,8.842713E-002,
   **   ~~~   ** Air System Named = CENTRAL SYSTEM did not converge for energy
   **   ~~~   ** Check values should be zero. Most Recent values listed first.
   **   ~~~   ** Demand-to-Supply interface energy check value iteration history trace: 2073.459342,2073.459342,2073.459342,2073.459342,2073.459342,2073.459342,2073.459342,2073.459342,2073.459343,2073.459343,
   **   ~~~   ** Supply-to-demand interface deck 1 energy check value iteration history trace: 842.033218,842.033218,842.033218,842.033218,842.033218,842.033218,842.033218,842.033218,842.033218,842.033218,
   ** Warning ** SimHVAC: Maximum iterations (20) exceeded for all HVAC loops, at ANNUAL, 12/10 19:45 - 20:00
   **   ~~~   ** The solution for one or more of the Air Loop HVAC systems did not appear to converge
   **   ~~~   ** Air System Named = CENTRAL SYSTEM did not converge for mass flow rate
   **   ~~~   ** Check values should be zero. Most Recent values listed first.
   **   ~~~   ** Demand-to-Supply interface mass flow rate check value iteration history trace: 9.373176E-002,9.373176E-002,9.373176E-002,9.373176E-002,9.373176E-002,9.373176E-002,9.373176E-002,9.373176E-002,9.373176E-002,9.373176E-002,
   **   ~~~   ** Supply-to-demand interface deck 1 mass flow rate check value iteration history trace: 9.373176E-002,9.373176E-002,9.373176E-002,9.373176E-002,9.373176E-002,9.373176E-002,9.373176E-002,9.373176E-002,9.373176E-002,9.373176E-002,
   **   ~~~   ** Air System Named = CENTRAL SYSTEM did not converge for energy
   **   ~~~   ** Check values should be zero. Most Recent values listed first.
   **   ~~~   ** Demand-to-Supply interface energy check value iteration history trace: 2239.662214,2239.662214,2239.662214,2239.662215,2239.662215,2239.662215,2239.662215,2239.662215,2239.662215,2239.662215,
   **   ~~~   ** Supply-to-demand interface deck 1 energy check value iteration history trace: 931.118817,931.118817,931.118817,931.118817,931.118817,931.118817,931.118817,931.118817,931.118817,931.118817,
   ************* Simulation Error Summary *************
   ** Warning ** The following Report Variables were requested but not generated -- check.rdd file
   **   ~~~   ** Either the IDF did not contain these elements, the variable name is misspelled,
   **   ~~~   ** or the requested variable is an advanced output which requires Output : Diagnostics, DisplayAdvancedReportVariables;
   ************* Key=*, VarName=BASEBOARD TOTAL HEATING ENERGY, Frequency=
   ************* Key=*, VarName=WATER HEATER NATURALGAS ENERGY, Frequency=
   ************* Key=*, VarName=COOLING COIL TOTAL HEATING ENERGY, Frequency=
   ************* There are 34 unused schedules in input.
   ************* There are 388 unused week schedules in input.
   ************* There are 396 unused day schedules in input.
   ************* Use Output:Diagnostics,DisplayUnusedSchedules; to see them.
   *************
   ************* ===== Recurring Error Summary =====
   ************* The following recurring error messages occurred.
   *************
   *************  ** Warning ** "TOTAL HOT WATER LOAD" - Target water temperature should be less than or equal to the hot water temperature error continues...
   *************  **   ~~~   **   This error occurred 134311 total times;
   *************  **   ~~~   **   during Warmup 0 times;
   *************  **   ~~~   **   during Sizing 0 times.
   *************  **   ~~~   **   Max=10.628723  Min=1.036671E-003
   *************
   *************  ** Warning ** SimHVAC: Exceeding Maximum iterations for all HVAC loops, during ANNUAL continues
   *************  **   ~~~   **   This error occurred 3 total times;
   *************  **   ~~~   **   during Warmup 0 times;
   *************  **   ~~~   **   during Sizing 0 times.
   *************
   *************
   ************* ===== Final Error Summary =====
   ************* The following error categories occurred.  Consider correcting or noting.
   ************* Nominally Unused Constructions
   ************* ..The nominally unused constructions warning is provided to alert you to potential conditions that can cause
   ************* ..extra time during simulation. Each construction is calculated by the algorithm indicated in the HeatBalanceAlgorithm
   ************* ..object. You may remove the constructions indicated (when you use the DisplayExtraWarnings option).
   *************
   ************* EnergyPlus Warmup Error Summary. During Warmup: 1 Warning; 0 Severe Errors.
   ************* EnergyPlus Sizing Error Summary. During Sizing: 4 Warning; 0 Severe Errors.
   ************* EnergyPlus Completed Successfully-- 134345 Warning; 0 Severe Errors; Elapsed Time=00hr 01min 44.57sec
