Program Version,EnergyPlus, Version 22.2.0-c249759bad, YMD=2023.09.01 19:43,
   ************* Beginning Zone Sizing Calculations
   ** Warning ** ProcessScheduleInput: Schedule:Constant="ALWAYS ON DISCRETE", Schedule Type Limits Name="ONOFF" not found -- will not be validated
   ** Warning ** Foundation:Kiva="KIVA FOUNDATION", no Interior Horizontal Insulation Material Name defined
   **   ~~~   ** Interior Horizontal Insulation Depth will not be used.
   ** Warning ** CheckUsedConstructions: There are 15 nominally unused constructions in input.
   **   ~~~   ** Each Unused construction is shown.
   ************* Construction=INTERIOR FLOOR
   ************* Construction=INTERIOR WINDOW
   ************* Construction=EXTERIOR DOOR
   ************* Construction=INTERIOR DOOR
   ************* Construction=GABLE CONSTRUCTION
   ************* Construction=CRAWL_FLOOR
   ************* Construction=INSULATED PIPE
   ************* Construction=PLAIN PIPE
   ************* Construction=TDD PIPE
   ************* Construction=TDD DOME
   ************* Construction=TDD DIFFUSER
   ************* Construction=CRAWL WALL
   ************* Construction=CEILING-FLOOR-LAYER
   ************* Construction=SLAB CONSTRUCTION W FULL R10 INSULATION
   ************* Construction=SLAB CONSTRUCTION W FULL R5 INSULATION
   ** Warning ** GetDXCoils: Coil:Heating:DX:SingleSpeed="DX_HEATING_COIL" curve values
   **   ~~~   ** ... Defrost Energy Input Ratio Function of Temperature Curve Name = DEFROSTEIR output is not equal to 1.0 (+ or - 10%) at rated conditions.
   **   ~~~   ** ... Curve output at rated conditions = 0.152
   ************* Beginning System Sizing Calculations
   ************* Beginning Plant Sizing Calculations
   ** Warning ** SizeDXCoil Coil:Cooling:DX:SingleSpeed DX_COOLING_COIL
   **   ~~~   ** ...Gross Rated Total Cooling Capacity [W] will be limited by the maximum rated volume flow per rated total capacity ratio.
   **   ~~~   ** ...DX coil volume flow rate ( m3/s ) = 0.434397
   **   ~~~   ** ...Requested capacity ( W ) = 6750.963
   **   ~~~   ** ...Requested flow/capacity ratio ( m3/s/W ) = 6.434E-005
   **   ~~~   ** ...Maximum flow/capacity ratio ( m3/s/W ) = 6.041E-005
   **   ~~~   ** ...Adjusted capacity ( W ) = 7190.817
   ** Warning ** Coil:WaterHeating:AirToWaterHeatPump:Wrapped "HEAT PUMP WATER HEATER EVAPORATOR": Rated air volume flow rate per watt of rated total water heating capacity is out of range
   **   ~~~   ** Min Rated Vol Flow Per Watt=[4.027E-005], Rated Vol Flow Per Watt=[1.510E-004], Max Rated Vol Flow Per Watt=[8.056E-005]. See Input-Output Reference Manual for valid range.
   ************* SizeFan: : Potential issue with equipment sizing for Fan:OnOff HEAT PUMP WATER HEATER FAN
   **   ~~~   ** User-Specified Maximum Flow Rate [m3/s] = 0.22653
   **   ~~~   ** differs from Design Size Maximum Flow Rate [m3/s] = 7.55250E-002
   **   ~~~   ** This may, or may not, indicate mismatched component sizes.
   **   ~~~   ** Verify that the value entered is intended and is consistent with other components.
   ** Warning ** Water heater = WATER HEATER TANK:  Recovery Efficiency and Energy Factor could not be calculated during the test for standard ratings
   **   ~~~   ** Setpoint was never recovered and/or heater never turned on
   ** Warning ** Check input. Pump nominal power or motor efficiency is set to 0, for pump=MAINS PRESSURE
   ** Warning ** Output:Meter: invalid Key Name="ELECTRIC_RANGE:INTERIOREQUIPMENT:ELECTRICITY" - not found.
   ** Warning ** Output:Meter: invalid Key Name="ELECTRIC_DRYER:INTERIOREQUIPMENT:ELECTRICITY" - not found.
   ** Warning ** Output:Meter: invalid Key Name="HEATRECOVERY:ELECTRICITY" - not found.
   ** Warning ** Output:Meter: invalid Key Name="HEATING:NATURALGAS" - not found.
   ** Warning ** Output:Meter: invalid Key Name="WATERSYSTEMS:NATURALGAS" - not found.
   ** Warning ** Output:Meter: invalid Key Name="PROPANE:FACILITY" - not found.
   ** Warning ** Output:Meter: invalid Key Name="HEATING:PROPANE" - not found.
   ************* Testing Individual Branch Integrity
   ************* All Branches passed integrity testing
   ************* Testing Individual Supply Air Path Integrity
   ************* All Supply Air Paths passed integrity testing
   ************* Testing Individual Return Air Path Integrity
   ************* All Return Air Paths passed integrity testing
   ************* No node connection errors were found.
   ************* Beginning Simulation
   ** Warning ** AirflowNetwork::Solver::validate_distribution: Heat pump water heater is simulated along with an AirflowNetwork but is not included in the AirflowNetwork.
   ** Warning ** CalcEquipmentFlowRates: "TOTAL HOT WATER LOAD" - Target water temperature is greater than the hot water temperature by (5.25 C)
   **   ~~~   **  Environment=EXTREME_WINTER, at Simulation time=01/27 06:00 - 06:15
   **   ~~~   ** ...target water temperature     = 53.33 C
   **   ~~~   ** ...hot water temperature        = 48.09 C
   **   ~~~   ** ...Target water temperature should be less than or equal to the hot water temperature. Verify temperature setpoints and schedules.
   ** Severe  ** CheckWarmupConvergence: Loads Initialization, Zone="LIVING" did not converge after 25 warmup days.
   **   ~~~   ** See Warmup Convergence Information in .eio file for details.
   **   ~~~   ** ...Environment(SizingPeriod)="EXTREME_SUMMER"
   **   ~~~   ** ..Max Temp Comparison = 5.80E-002 vs Temperature Convergence Tolerance=5.00E-002 - Fail Convergence
   **   ~~~   ** ..Min Temp Comparison = 7.55E-005 vs Temperature Convergence Tolerance=5.00E-002 - Pass Convergence
   **   ~~~   ** ..Max Heat Load Comparison = 0.4979 vs Loads Convergence Tolerance=5.00E-002 - Fail Convergence
   **   ~~~   ** ..Max Cool Load Comparison = 7.2303E-003 vs Loads Convergence Tolerance=5.00E-002 - Pass Convergence
   ** Warning ** SimHVAC: Maximum iterations (20) exceeded for all HVAC loops, at ANNUAL, 01/04 07:08 - 07:15
   **   ~~~   ** The solution for one or more of the Air Loop HVAC systems did not appear to converge
   **   ~~~   ** Air System Named = CENTRAL SYSTEM did not converge for mass flow rate
   **   ~~~   ** Check values should be zero. Most Recent values listed first.
   **   ~~~   ** Demand-to-Supply interface mass flow rate check value iteration history trace: 6.489778E-002,6.489778E-002,6.489778E-002,6.489778E-002,6.489778E-002,6.489778E-002,6.489778E-002,6.489778E-002,6.489778E-002,6.489778E-002,
   **   ~~~   ** Supply-to-demand interface deck 1 mass flow rate check value iteration history trace: 6.489778E-002,6.489778E-002,6.489778E-002,6.489778E-002,6.489778E-002,6.489778E-002,6.489778E-002,6.489778E-002,6.489778E-002,6.489778E-002,
   **   ~~~   ** Air System Named = CENTRAL SYSTEM did not converge for energy
   **   ~~~   ** Check values should be zero. Most Recent values listed first.
   **   ~~~   ** Demand-to-Supply interface energy check value iteration history trace: 1285.687626,1285.687626,1285.687626,1285.687626,1285.687626,1285.687626,1285.687626,1285.687626,1285.687626,1285.687626,
   **   ~~~   ** Supply-to-demand interface deck 1 energy check value iteration history trace: 2251.687345,2251.687345,2251.687345,2251.687345,2251.687345,2251.687344,2251.687344,2251.687344,2251.687344,2251.687344,
   ** Warning ** SimHVAC: Maximum iterations (20) exceeded for all HVAC loops, at ANNUAL, 01/04 09:15 - 09:22
   **   ~~~   ** The solution for one or more of the Air Loop HVAC systems did not appear to converge
   **   ~~~   ** Air System Named = CENTRAL SYSTEM did not converge for mass flow rate
   **   ~~~   ** Check values should be zero. Most Recent values listed first.
   **   ~~~   ** Demand-to-Supply interface mass flow rate check value iteration history trace: 5.208737E-002,5.208737E-002,5.208737E-002,5.208737E-002,5.208737E-002,5.208737E-002,5.208737E-002,5.208737E-002,5.208737E-002,5.208737E-002,
   **   ~~~   ** Supply-to-demand interface deck 1 mass flow rate check value iteration history trace: 5.208737E-002,5.208737E-002,5.208737E-002,5.208737E-002,5.208737E-002,5.208737E-002,5.208737E-002,5.208737E-002,5.208737E-002,5.208737E-002,
   **   ~~~   ** Air System Named = CENTRAL SYSTEM did not converge for energy
   **   ~~~   ** Check values should be zero. Most Recent values listed first.
   **   ~~~   ** Demand-to-Supply interface energy check value iteration history trace: 1032.152141,1032.152141,1032.152141,1032.152141,1032.152141,1032.152141,1032.152140,1032.152140,1032.152140,1032.152140,
   **   ~~~   ** Supply-to-demand interface deck 1 energy check value iteration history trace: 1851.112362,1851.112362,1851.112362,1851.112362,1851.112362,1851.112362,1851.112362,1851.112362,1851.112362,1851.112362,
   ** Warning ** SimHVAC: Maximum iterations (20) exceeded for all HVAC loops, at ANNUAL, 01/14 09:00 - 09:05
   **   ~~~   ** The solution for one or more of the Air Loop HVAC systems did not appear to converge
   **   ~~~   ** Air System Named = CENTRAL SYSTEM did not converge for mass flow rate
   **   ~~~   ** Check values should be zero. Most Recent values listed first.
   **   ~~~   ** Demand-to-Supply interface mass flow rate check value iteration history trace: 5.360967E-002,5.360967E-002,5.360967E-002,5.360967E-002,5.360967E-002,5.360967E-002,5.360967E-002,5.360967E-002,5.360967E-002,5.360967E-002,
   **   ~~~   ** Supply-to-demand interface deck 1 mass flow rate check value iteration history trace: 5.360967E-002,5.360967E-002,5.360967E-002,5.360967E-002,5.360967E-002,5.360967E-002,5.360967E-002,5.360967E-002,5.360967E-002,5.360967E-002,
   **   ~~~   ** Air System Named = CENTRAL SYSTEM did not converge for energy
   **   ~~~   ** Check values should be zero. Most Recent values listed first.
   **   ~~~   ** Demand-to-Supply interface energy check value iteration history trace: 1054.472846,1054.472846,1054.472846,1054.472846,1054.472846,1054.472846,1054.472846,1054.472846,1054.472846,1054.472846,
   **   ~~~   ** Supply-to-demand interface deck 1 energy check value iteration history trace: 1945.150903,1945.150903,1945.150903,1945.150903,1945.150903,1945.150903,1945.150903,1945.150903,1945.150903,1945.150902,
   ** Warning ** SimHVAC: Maximum iterations (20) exceeded for all HVAC loops, at ANNUAL, 02/19 09:08 - 09:15
   **   ~~~   ** The solution for one or more of the Air Loop HVAC systems did not appear to converge
   **   ~~~   ** Air System Named = CENTRAL SYSTEM did not converge for mass flow rate
   **   ~~~   ** Check values should be zero. Most Recent values listed first.
   **   ~~~   ** Demand-to-Supply interface mass flow rate check value iteration history trace: 7.858177E-002,7.858177E-002,7.858177E-002,7.858177E-002,7.858177E-002,7.858177E-002,7.858177E-002,7.858177E-002,7.858177E-002,7.858177E-002,
   **   ~~~   ** Supply-to-demand interface deck 1 mass flow rate check value iteration history trace: 7.858177E-002,7.858177E-002,7.858177E-002,7.858177E-002,7.858177E-002,7.858177E-002,7.858177E-002,7.858177E-002,7.858177E-002,7.858177E-002,
   **   ~~~   ** Air System Named = CENTRAL SYSTEM did not converge for energy
   **   ~~~   ** Check values should be zero. Most Recent values listed first.
   **   ~~~   ** Demand-to-Supply interface energy check value iteration history trace: 1556.895085,1556.895085,1556.895084,1556.895084,1556.895084,1556.895084,1556.895084,1556.895084,1556.895084,1556.895084,
   **   ~~~   ** Supply-to-demand interface deck 1 energy check value iteration history trace: 2625.536809,2625.536809,2625.536809,2625.536809,2625.536809,2625.536809,2625.536809,2625.536808,2625.536808,2625.536808,
   ** Warning ** Temperature out of range [-100. to 200.] (PsyPsatFnTemp)
   **   ~~~   **  Routine=PsyTwbFnTdbWPb, Environment=ANNUAL, at Simulation time=02/22 10:45 - 10:50
   **   ~~~   **  Input Temperature=-104.85
   ** Warning ** SimHVAC: Maximum iterations (20) exceeded for all HVAC loops, at ANNUAL, 02/25 11:15 - 11:20
   **   ~~~   ** The solution for one or more of the Air Loop HVAC systems did not appear to converge
   **   ~~~   ** Air System Named = CENTRAL SYSTEM did not converge for mass flow rate
   **   ~~~   ** Check values should be zero. Most Recent values listed first.
   **   ~~~   ** Demand-to-Supply interface mass flow rate check value iteration history trace: 5.729037E-002,5.729037E-002,5.729037E-002,5.729037E-002,5.729037E-002,5.729037E-002,5.729037E-002,5.729037E-002,5.729037E-002,5.729037E-002,
   **   ~~~   ** Supply-to-demand interface deck 1 mass flow rate check value iteration history trace: 5.729037E-002,5.729037E-002,5.729037E-002,5.729037E-002,5.729037E-002,5.729037E-002,5.729037E-002,5.729037E-002,5.729037E-002,5.729037E-002,
   **   ~~~   ** Air System Named = CENTRAL SYSTEM did not converge for energy
   **   ~~~   ** Check values should be zero. Most Recent values listed first.
   **   ~~~   ** Demand-to-Supply interface energy check value iteration history trace: 1135.300139,1135.300139,1135.300139,1135.300139,1135.300139,1135.300139,1135.300139,1135.300139,1135.300139,1135.300139,
   **   ~~~   ** Supply-to-demand interface deck 1 energy check value iteration history trace: 2017.343151,2017.343151,2017.343151,2017.343151,2017.343151,2017.343151,2017.343151,2017.343151,2017.343151,2017.343151,
   ** Warning ** SimHVAC: Maximum iterations (20) exceeded for all HVAC loops, at ANNUAL, 03/06 10:15 - 10:30
   **   ~~~   ** The solution for one or more of the Air Loop HVAC systems did not appear to converge
   **   ~~~   ** Air System Named = CENTRAL SYSTEM did not converge for mass flow rate
   **   ~~~   ** Check values should be zero. Most Recent values listed first.
   **   ~~~   ** Demand-to-Supply interface mass flow rate check value iteration history trace: 5.434317E-002,5.434317E-002,5.434317E-002,5.434317E-002,5.434317E-002,5.434317E-002,5.434317E-002,5.434317E-002,5.434317E-002,5.434317E-002,
   **   ~~~   ** Supply-to-demand interface deck 1 mass flow rate check value iteration history trace: 5.434317E-002,5.434317E-002,5.434317E-002,5.434317E-002,5.434317E-002,5.434317E-002,5.434317E-002,5.434317E-002,5.434317E-002,5.434317E-002,
   **   ~~~   ** Air System Named = CENTRAL SYSTEM did not converge for energy
   **   ~~~   ** Check values should be zero. Most Recent values listed first.
   **   ~~~   ** Demand-to-Supply interface energy check value iteration history trace: 1076.909329,1076.909329,1076.909329,1076.909329,1076.909329,1076.909329,1076.909329,1076.909329,1076.909329,1076.909329,
   **   ~~~   ** Supply-to-demand interface deck 1 energy check value iteration history trace: 1966.959514,1966.959514,1966.959514,1966.959514,1966.959514,1966.959514,1966.959514,1966.959514,1966.959514,1966.959514,
   ** Warning ** SimHVAC: Maximum iterations (20) exceeded for all HVAC loops, at ANNUAL, 03/07 08:45 - 08:52
   **   ~~~   ** The solution for one or more of the Air Loop HVAC systems did not appear to converge
   **   ~~~   ** Air System Named = CENTRAL SYSTEM did not converge for mass flow rate
   **   ~~~   ** Check values should be zero. Most Recent values listed first.
   **   ~~~   ** Demand-to-Supply interface mass flow rate check value iteration history trace: 5.131691E-002,5.131691E-002,5.131691E-002,5.131691E-002,5.131691E-002,5.131691E-002,5.131691E-002,5.131691E-002,5.131691E-002,5.131691E-002,
   **   ~~~   ** Supply-to-demand interface deck 1 mass flow rate check value iteration history trace: 5.131691E-002,5.131691E-002,5.131691E-002,5.131691E-002,5.131691E-002,5.131691E-002,5.131691E-002,5.131691E-002,5.131691E-002,5.131691E-002,
   **   ~~~   ** Air System Named = CENTRAL SYSTEM did not converge for energy
   **   ~~~   ** Check values should be zero. Most Recent values listed first.
   **   ~~~   ** Demand-to-Supply interface energy check value iteration history trace: 1014.816310,1014.816310,1014.816310,1014.816310,1014.816310,1014.816310,1014.816310,1014.816310,1014.816310,1014.816310,
   **   ~~~   ** Supply-to-demand interface deck 1 energy check value iteration history trace: 1813.405357,1813.405357,1813.405357,1813.405357,1813.405357,1813.405357,1813.405357,1813.405357,1813.405357,1813.405357,
   ** Warning ** SimHVAC: Maximum iterations (20) exceeded for all HVAC loops, at ANNUAL, 03/31 09:08 - 09:15
   **   ~~~   ** The solution for one or more of the Air Loop HVAC systems did not appear to converge
   **   ~~~   ** Air System Named = CENTRAL SYSTEM did not converge for mass flow rate
   **   ~~~   ** Check values should be zero. Most Recent values listed first.
   **   ~~~   ** Demand-to-Supply interface mass flow rate check value iteration history trace: 6.269767E-002,6.269767E-002,6.269767E-002,6.269767E-002,6.269767E-002,6.269767E-002,6.269767E-002,6.269767E-002,6.269767E-002,6.269767E-002,
   **   ~~~   ** Supply-to-demand interface deck 1 mass flow rate check value iteration history trace: 6.269767E-002,6.269767E-002,6.269767E-002,6.269767E-002,6.269767E-002,6.269767E-002,6.269767E-002,6.269767E-002,6.269767E-002,6.269767E-002,
   **   ~~~   ** Air System Named = CENTRAL SYSTEM did not converge for energy
   **   ~~~   ** Check values should be zero. Most Recent values listed first.
   **   ~~~   ** Demand-to-Supply interface energy check value iteration history trace: 1240.980813,1240.980813,1240.980813,1240.980813,1240.980813,1240.980813,1240.980813,1240.980813,1240.980813,1240.980813,
   **   ~~~   ** Supply-to-demand interface deck 1 energy check value iteration history trace: 2148.666166,2148.666165,2148.666165,2148.666165,2148.666165,2148.666165,2148.666165,2148.666165,2148.666165,2148.666165,
   ** Warning ** SimHVAC: Maximum iterations (20) exceeded for all HVAC loops, at ANNUAL, 04/17 10:20 - 10:25
   **   ~~~   ** The solution for one or more of the Air Loop HVAC systems did not appear to converge
   **   ~~~   ** Air System Named = CENTRAL SYSTEM did not converge for mass flow rate
   **   ~~~   ** Check values should be zero. Most Recent values listed first.
   **   ~~~   ** Demand-to-Supply interface mass flow rate check value iteration history trace: 6.508365E-002,6.508365E-002,6.508365E-002,6.508365E-002,6.508365E-002,6.508365E-002,6.508365E-002,6.508365E-002,6.508365E-002,6.508365E-002,
   **   ~~~   ** Supply-to-demand interface deck 1 mass flow rate check value iteration history trace: 6.508365E-002,6.508365E-002,6.508365E-002,6.508365E-002,6.508365E-002,6.508365E-002,6.508365E-002,6.508365E-002,6.508365E-002,6.508365E-002,
   **   ~~~   ** Air System Named = CENTRAL SYSTEM did not converge for energy
   **   ~~~   ** Check values should be zero. Most Recent values listed first.
   **   ~~~   ** Demand-to-Supply interface energy check value iteration history trace: 1531.600975,1531.600975,1531.600975,1531.600975,1531.600975,1531.600975,1531.600975,1531.600975,1531.600975,1531.600975,
   **   ~~~   ** Supply-to-demand interface deck 1 energy check value iteration history trace: 837.432291,837.432292,837.432292,837.432292,837.432292,837.432292,837.432292,837.432292,837.432292,837.432292,
   ** Warning ** SimHVAC: Maximum iterations (20) exceeded for all HVAC loops, at ANNUAL, 10/20 07:00 - 07:15
   **   ~~~   ** The solution for one or more of the Air Loop HVAC systems did not appear to converge
   **   ~~~   ** Air System Named = CENTRAL SYSTEM did not converge for mass flow rate
   **   ~~~   ** Check values should be zero. Most Recent values listed first.
   **   ~~~   ** Demand-to-Supply interface mass flow rate check value iteration history trace: 5.936200E-002,5.936200E-002,5.936200E-002,5.936200E-002,5.936200E-002,5.936200E-002,5.936200E-002,5.936200E-002,5.936200E-002,5.936200E-002,
   **   ~~~   ** Supply-to-demand interface deck 1 mass flow rate check value iteration history trace: 5.936200E-002,5.936200E-002,5.936200E-002,5.936200E-002,5.936200E-002,5.936200E-002,5.936200E-002,5.936200E-002,5.936200E-002,5.936200E-002,
   **   ~~~   ** Air System Named = CENTRAL SYSTEM did not converge for energy
   **   ~~~   ** Check values should be zero. Most Recent values listed first.
   **   ~~~   ** Demand-to-Supply interface energy check value iteration history trace: 1160.731011,1160.731011,1160.731011,1160.731011,1160.731010,1160.731010,1160.731010,1160.731010,1160.731010,1160.731010,
   **   ~~~   ** Supply-to-demand interface deck 1 energy check value iteration history trace: 1974.912516,1974.912516,1974.912516,1974.912516,1974.912516,1974.912516,1974.912516,1974.912516,1974.912516,1974.912516,
   ** Warning ** SimHVAC: Maximum iterations (20) exceeded for all HVAC loops, at ANNUAL, 10/31 22:30 - 22:38
   **   ~~~   ** The solution for one or more of the Air Loop HVAC systems did not appear to converge
   **   ~~~   ** Air System Named = CENTRAL SYSTEM did not converge for mass flow rate
   **   ~~~   ** Check values should be zero. Most Recent values listed first.
   **   ~~~   ** Demand-to-Supply interface mass flow rate check value iteration history trace: 4.689631E-002,4.689631E-002,4.689631E-002,4.689631E-002,4.689631E-002,4.689631E-002,4.689631E-002,4.689631E-002,4.689631E-002,4.689631E-002,
   **   ~~~   ** Supply-to-demand interface deck 1 mass flow rate check value iteration history trace: 4.689631E-002,4.689631E-002,4.689631E-002,4.689631E-002,4.689631E-002,4.689631E-002,4.689631E-002,4.689631E-002,4.689631E-002,4.689631E-002,
   **   ~~~   ** Air System Named = CENTRAL SYSTEM did not converge for energy
   **   ~~~   ** Check values should be zero. Most Recent values listed first.
   **   ~~~   ** Demand-to-Supply interface energy check value iteration history trace: 1141.741860,1141.741860,1141.741860,1141.741861,1141.741861,1141.741861,1141.741861,1141.741861,1141.741861,1141.741862,
   **   ~~~   ** Supply-to-demand interface deck 1 energy check value iteration history trace: 605.683692,605.683692,605.683692,605.683693,605.683693,605.683693,605.683693,605.683693,605.683693,605.683693,
   ** Warning ** SimHVAC: Maximum iterations (20) exceeded for all HVAC loops, at ANNUAL, 11/09 15:23 - 15:30
   **   ~~~   ** The solution for one or more of the Air Loop HVAC systems did not appear to converge
   **   ~~~   ** Air System Named = CENTRAL SYSTEM did not converge for mass flow rate
   **   ~~~   ** Check values should be zero. Most Recent values listed first.
   **   ~~~   ** Demand-to-Supply interface mass flow rate check value iteration history trace: 0.101751,0.101751,0.101751,0.101751,0.101751,0.101751,0.101751,0.101751,0.101751,0.101751,
   **   ~~~   ** Supply-to-demand interface deck 1 mass flow rate check value iteration history trace: 0.101751,0.101751,0.101751,0.101751,0.101751,0.101751,0.101751,0.101751,0.101751,0.101751,
   **   ~~~   ** Air System Named = CENTRAL SYSTEM did not converge for energy
   **   ~~~   ** Check values should be zero. Most Recent values listed first.
   **   ~~~   ** Demand-to-Supply interface energy check value iteration history trace: 2418.137922,2418.137922,2418.137923,2418.137924,2418.137924,2418.137925,2418.137926,2418.137926,2418.137927,2418.137928,
   **   ~~~   ** Supply-to-demand interface deck 1 energy check value iteration history trace: 1263.397239,1263.397239,1263.397240,1263.397240,1263.397240,1263.397241,1263.397241,1263.397242,1263.397242,1263.397242,
   ** Warning ** SimHVAC: Maximum iterations (20) exceeded for all HVAC loops, at ANNUAL, 11/09 16:10 - 16:15
   **   ~~~   ** The solution for one or more of the Air Loop HVAC systems did not appear to converge
   **   ~~~   ** Air System Named = CENTRAL SYSTEM did not converge for mass flow rate
   **   ~~~   ** Check values should be zero. Most Recent values listed first.
   **   ~~~   ** Demand-to-Supply interface mass flow rate check value iteration history trace: 0.230457,0.230457,0.230457,0.230457,0.230457,0.230457,0.230457,0.230457,0.230457,0.230457,
   **   ~~~   ** Supply-to-demand interface deck 1 mass flow rate check value iteration history trace: 0.230457,0.230457,0.230457,0.230457,0.230457,0.230457,0.230457,0.230457,0.230457,0.230457,
   **   ~~~   ** Air System Named = CENTRAL SYSTEM did not converge for energy
   **   ~~~   ** Check values should be zero. Most Recent values listed first.
   **   ~~~   ** Demand-to-Supply interface energy check value iteration history trace: 5475.064878,5475.064879,5475.064881,5475.064882,5475.064883,5475.064885,5475.064886,5475.064888,5475.064889,5475.064890,
   **   ~~~   ** Supply-to-demand interface deck 1 energy check value iteration history trace: 2848.608194,2848.608194,2848.608195,2848.608196,2848.608196,2848.608197,2848.608198,2848.608199,2848.608199,2848.608200,
   ** Warning ** SimHVAC: Maximum iterations (20) exceeded for all HVAC loops, at ANNUAL, 11/15 21:35 - 21:40
   **   ~~~   ** The solution for one or more of the Air Loop HVAC systems did not appear to converge
   **   ~~~   ** Air System Named = CENTRAL SYSTEM did not converge for mass flow rate
   **   ~~~   ** Check values should be zero. Most Recent values listed first.
   **   ~~~   ** Demand-to-Supply interface mass flow rate check value iteration history trace: 8.159989E-002,8.159989E-002,8.159989E-002,8.159989E-002,8.159989E-002,8.159989E-002,8.159989E-002,8.159989E-002,8.159989E-002,8.159989E-002,
   **   ~~~   ** Supply-to-demand interface deck 1 mass flow rate check value iteration history trace: 8.159989E-002,8.159989E-002,8.159989E-002,8.159989E-002,8.159989E-002,8.159989E-002,8.159989E-002,8.159989E-002,8.159989E-002,8.159989E-002,
   **   ~~~   ** Air System Named = CENTRAL SYSTEM did not converge for energy
   **   ~~~   ** Check values should be zero. Most Recent values listed first.
   **   ~~~   ** Demand-to-Supply interface energy check value iteration history trace: 1930.949326,1930.949326,1930.949326,1930.949326,1930.949326,1930.949326,1930.949327,1930.949327,1930.949327,1930.949327,
   **   ~~~   ** Supply-to-demand interface deck 1 energy check value iteration history trace: 845.807502,845.807502,845.807502,845.807502,845.807502,845.807502,845.807502,845.807502,845.807502,845.807502,
   ************* Simulation Error Summary *************
   ** Warning ** The following Report Variables were requested but not generated -- check.rdd file
   **   ~~~   ** Either the IDF did not contain these elements, the variable name is misspelled,
   **   ~~~   ** or the requested variable is an advanced output which requires Output : Diagnostics, DisplayAdvancedReportVariables;
   ************* Key=*, VarName=BASEBOARD TOTAL HEATING ENERGY, Frequency=
   ************* Key=*, VarName=WATER HEATER NATURALGAS ENERGY, Frequency=
   ************* Key=*, VarName=COOLING COIL TOTAL HEATING ENERGY, Frequency=
   ************* There are 34 unused schedules in input.
   ************* There are 388 unused week schedules in input.
   ************* There are 396 unused day schedules in input.
   ************* Use Output:Diagnostics,DisplayUnusedSchedules; to see them.
   *************
   ************* ===== Recurring Error Summary =====
   ************* The following recurring error messages occurred.
   *************
   *************  ** Warning ** "TOTAL HOT WATER LOAD" - Target water temperature should be less than or equal to the hot water temperature error continues...
   *************  **   ~~~   **   This error occurred 143907 total times;
   *************  **   ~~~   **   during Warmup 0 times;
   *************  **   ~~~   **   during Sizing 0 times.
   *************  **   ~~~   **   Max=11.283068  Min=2.661340E-003
   *************
   *************  ** Warning ** Temperature out of range [-100. to 200.] (PsyPsatFnTemp)
   *************  **   ~~~   **   This error occurred 1 total times;
   *************  **   ~~~   **   during Warmup 0 times;
   *************  **   ~~~   **   during Sizing 0 times.
   *************  **   ~~~   **   Max=-104.856689 C  Min=-104.856689 C
   *************
   *************  ** Warning ** SimHVAC: Exceeding Maximum iterations for all HVAC loops, during ANNUAL continues
   *************  **   ~~~   **   This error occurred 2 total times;
   *************  **   ~~~   **   during Warmup 0 times;
   *************  **   ~~~   **   during Sizing 0 times.
   *************
   *************
   ************* ===== Final Error Summary =====
   ************* The following error categories occurred.  Consider correcting or noting.
   ************* Loads Initialization did not Converge
   ************* ..1) very high thermal mass such as very thick concrete (solution: increase max number of warmup
   ************* ..   days in the BUILDING object);
   ************* ..2) moderate mass and inadequate space conditioning such that the building keeps getting warmer
   ************* ..   and warmer on successive days (solution: add HVAC, check building thermal properties,
   ************* ..   check if infiltration is included, make sure HVAC properly controlled);
   ************* ..3) a soil layer modeled below the concrete slab - (solution remove this layer and read about
   ************* ..   ground temperatures in the Auxiliary Programs document).
   ************* ..4) unreasonable (too small) limits in the BUILDING object for temperature (.4 default) or
   ************* ..   loads tolerances (.04 default)
   ************* Nominally Unused Constructions
   ************* ..The nominally unused constructions warning is provided to alert you to potential conditions that can cause
   ************* ..extra time during simulation. Each construction is calculated by the algorithm indicated in the HeatBalanceAlgorithm
   ************* ..object. You may remove the constructions indicated (when you use the DisplayExtraWarnings option).
   *************
   ************* EnergyPlus Warmup Error Summary. During Warmup: 1 Warning; 1 Severe Errors.
   ************* EnergyPlus Sizing Error Summary. During Sizing: 4 Warning; 0 Severe Errors.
   ************* EnergyPlus Completed Successfully-- 143942 Warning; 1 Severe Errors; Elapsed Time=00hr 01min 55.18sec
