Program Version,EnergyPlus, Version 22.2.0-c249759bad, YMD=2023.09.01 19:58,
   ************* Beginning Zone Sizing Calculations
   ** Warning ** ProcessScheduleInput: Schedule:Constant="ALWAYS ON DISCRETE", Schedule Type Limits Name="ONOFF" not found -- will not be validated
   ** Warning ** Foundation:Kiva="KIVA FOUNDATION", no Interior Horizontal Insulation Material Name defined
   **   ~~~   ** Interior Horizontal Insulation Depth will not be used.
   ** Warning ** CheckUsedConstructions: There are 15 nominally unused constructions in input.
   **   ~~~   ** Each Unused construction is shown.
   ************* Construction=INTERIOR FLOOR
   ************* Construction=INTERIOR WINDOW
   ************* Construction=EXTERIOR DOOR
   ************* Construction=INTERIOR DOOR
   ************* Construction=GABLE CONSTRUCTION
   ************* Construction=CRAWL_FLOOR
   ************* Construction=INSULATED PIPE
   ************* Construction=PLAIN PIPE
   ************* Construction=TDD PIPE
   ************* Construction=TDD DOME
   ************* Construction=TDD DIFFUSER
   ************* Construction=CRAWL WALL
   ************* Construction=CEILING-FLOOR-LAYER
   ************* Construction=SLAB CONSTRUCTION W FULL R10 INSULATION
   ************* Construction=SLAB CONSTRUCTION W FULL R5 INSULATION
   ** Warning ** GetDXCoils: Coil:Heating:DX:SingleSpeed="DX_HEATING_COIL" curve values
   **   ~~~   ** ... Defrost Energy Input Ratio Function of Temperature Curve Name = DEFROSTEIR output is not equal to 1.0 (+ or - 10%) at rated conditions.
   **   ~~~   ** ... Curve output at rated conditions = 0.152
   ************* Beginning System Sizing Calculations
   ************* Beginning Plant Sizing Calculations
   ** Warning ** SizeDXCoil Coil:Cooling:DX:SingleSpeed DX_COOLING_COIL
   **   ~~~   ** ...Gross Rated Total Cooling Capacity [W] will be limited by the maximum rated volume flow per rated total capacity ratio.
   **   ~~~   ** ...DX coil volume flow rate ( m3/s ) = 0.570733
   **   ~~~   ** ...Requested capacity ( W ) = 7326.402
   **   ~~~   ** ...Requested flow/capacity ratio ( m3/s/W ) = 7.790E-005
   **   ~~~   ** ...Maximum flow/capacity ratio ( m3/s/W ) = 6.041E-005
   **   ~~~   ** ...Adjusted capacity ( W ) = 9447.660
   ** Warning ** SizeDXCoil Coil:Heating:DX:SingleSpeed DX_HEATING_COIL
   **   ~~~   ** ...Gross Rated Heating Capacity [W] will be limited by the maximum rated volume flow per rated total capacity ratio.
   **   ~~~   ** ...DX coil volume flow rate ( m3/s ) = 0.570733
   **   ~~~   ** ...Requested capacity ( W ) = 9447.660
   **   ~~~   ** ...Requested flow/capacity ratio ( m3/s/W ) = 6.041E-005
   **   ~~~   ** ...Maximum flow/capacity ratio ( m3/s/W ) = 6.041E-005
   **   ~~~   ** ...Adjusted capacity ( W ) = 9447.660
   ** Warning ** Coil:WaterHeating:AirToWaterHeatPump:Wrapped "HEAT PUMP WATER HEATER EVAPORATOR": Rated air volume flow rate per watt of rated total water heating capacity is out of range
   **   ~~~   ** Min Rated Vol Flow Per Watt=[4.027E-005], Rated Vol Flow Per Watt=[1.510E-004], Max Rated Vol Flow Per Watt=[8.056E-005]. See Input-Output Reference Manual for valid range.
   ************* SizeFan: : Potential issue with equipment sizing for Fan:OnOff HEAT PUMP WATER HEATER FAN
   **   ~~~   ** User-Specified Maximum Flow Rate [m3/s] = 0.22653
   **   ~~~   ** differs from Design Size Maximum Flow Rate [m3/s] = 7.55250E-002
   **   ~~~   ** This may, or may not, indicate mismatched component sizes.
   **   ~~~   ** Verify that the value entered is intended and is consistent with other components.
   ** Warning ** Water heater = WATER HEATER TANK:  Recovery Efficiency and Energy Factor could not be calculated during the test for standard ratings
   **   ~~~   ** Setpoint was never recovered and/or heater never turned on
   ** Warning ** Check input. Pump nominal power or motor efficiency is set to 0, for pump=MAINS PRESSURE
   ** Warning ** Output:Meter: invalid Key Name="ELECTRIC_RANGE:INTERIOREQUIPMENT:ELECTRICITY" - not found.
   ** Warning ** Output:Meter: invalid Key Name="ELECTRIC_DRYER:INTERIOREQUIPMENT:ELECTRICITY" - not found.
   ** Warning ** Output:Meter: invalid Key Name="HEATRECOVERY:ELECTRICITY" - not found.
   ** Warning ** Output:Meter: invalid Key Name="HEATING:NATURALGAS" - not found.
   ** Warning ** Output:Meter: invalid Key Name="WATERSYSTEMS:NATURALGAS" - not found.
   ** Warning ** Output:Meter: invalid Key Name="PROPANE:FACILITY" - not found.
   ** Warning ** Output:Meter: invalid Key Name="HEATING:PROPANE" - not found.
   ************* Testing Individual Branch Integrity
   ************* All Branches passed integrity testing
   ************* Testing Individual Supply Air Path Integrity
   ************* All Supply Air Paths passed integrity testing
   ************* Testing Individual Return Air Path Integrity
   ************* All Return Air Paths passed integrity testing
   ************* No node connection errors were found.
   ************* Beginning Simulation
   ** Warning ** AirflowNetwork::Solver::validate_distribution: Heat pump water heater is simulated along with an AirflowNetwork but is not included in the AirflowNetwork.
   ** Warning ** CalcEquipmentFlowRates: "TOTAL HOT WATER LOAD" - Target water temperature is greater than the hot water temperature by (4.26 C)
   **   ~~~   **  Environment=EXTREME_WINTER, at Simulation time=12/22 07:00 - 07:15
   **   ~~~   ** ...target water temperature     = 53.33 C
   **   ~~~   ** ...hot water temperature        = 49.08 C
   **   ~~~   ** ...Target water temperature should be less than or equal to the hot water temperature. Verify temperature setpoints and schedules.
   ** Warning ** SimHVAC: Maximum iterations (20) exceeded for all HVAC loops, at EXTREME_WINTER, 12/30 15:47 - 15:50
   **   ~~~   ** The solution for one or more of the Air Loop HVAC systems did not appear to converge
   **   ~~~   ** Air System Named = CENTRAL SYSTEM did not converge for mass flow rate
   **   ~~~   ** Check values should be zero. Most Recent values listed first.
   **   ~~~   ** Demand-to-Supply interface mass flow rate check value iteration history trace: 6.339555E-002,6.339555E-002,6.339555E-002,6.339555E-002,6.339555E-002,6.339555E-002,6.339555E-002,6.339555E-002,6.339555E-002,6.339555E-002,
   **   ~~~   ** Supply-to-demand interface deck 1 mass flow rate check value iteration history trace: 6.339555E-002,6.339555E-002,6.339555E-002,6.339555E-002,6.339555E-002,6.339555E-002,6.339555E-002,6.339555E-002,6.339555E-002,6.339555E-002,
   **   ~~~   ** Air System Named = CENTRAL SYSTEM did not converge for energy
   **   ~~~   ** Check values should be zero. Most Recent values listed first.
   **   ~~~   ** Demand-to-Supply interface energy check value iteration history trace: 1255.250300,1255.250300,1255.250300,1255.250300,1255.250300,1255.250300,1255.250300,1255.250300,1255.250299,1255.250299,
   **   ~~~   ** Supply-to-demand interface deck 1 energy check value iteration history trace: 1892.318374,1892.318374,1892.318374,1892.318374,1892.318374,1892.318374,1892.318373,1892.318373,1892.318373,1892.318373,
   ** Warning ** SimHVAC: Maximum iterations (20) exceeded for all HVAC loops, at ANNUAL, 01/02 10:45 - 11:00
   **   ~~~   ** The solution for one or more of the Air Loop HVAC systems did not appear to converge
   **   ~~~   ** Air System Named = CENTRAL SYSTEM did not converge for mass flow rate
   **   ~~~   ** Check values should be zero. Most Recent values listed first.
   **   ~~~   ** Demand-to-Supply interface mass flow rate check value iteration history trace: 7.869554E-002,7.869554E-002,7.869554E-002,7.869554E-002,7.869554E-002,7.869554E-002,7.869554E-002,7.869554E-002,7.869554E-002,7.869554E-002,
   **   ~~~   ** Supply-to-demand interface deck 1 mass flow rate check value iteration history trace: 7.869554E-002,7.869554E-002,7.869554E-002,7.869554E-002,7.869554E-002,7.869554E-002,7.869554E-002,7.869554E-002,7.869554E-002,7.869554E-002,
   **   ~~~   ** Air System Named = CENTRAL SYSTEM did not converge for energy
   **   ~~~   ** Check values should be zero. Most Recent values listed first.
   **   ~~~   ** Demand-to-Supply interface energy check value iteration history trace: 1559.473911,1559.473911,1559.473910,1559.473910,1559.473910,1559.473910,1559.473910,1559.473910,1559.473910,1559.473910,
   **   ~~~   ** Supply-to-demand interface deck 1 energy check value iteration history trace: 2488.942727,2488.942727,2488.942726,2488.942726,2488.942726,2488.942726,2488.942726,2488.942726,2488.942726,2488.942725,
   ** Warning ** SimHVAC: Maximum iterations (20) exceeded for all HVAC loops, at ANNUAL, 01/08 13:15 - 13:22
   **   ~~~   ** The solution for one or more of the Air Loop HVAC systems did not appear to converge
   **   ~~~   ** Air System Named = CENTRAL SYSTEM did not converge for mass flow rate
   **   ~~~   ** Check values should be zero. Most Recent values listed first.
   **   ~~~   ** Demand-to-Supply interface mass flow rate check value iteration history trace: 6.193687E-002,6.193687E-002,6.193687E-002,6.193687E-002,6.193687E-002,6.193687E-002,6.193687E-002,6.193687E-002,6.193687E-002,6.193687E-002,
   **   ~~~   ** Supply-to-demand interface deck 1 mass flow rate check value iteration history trace: 6.193687E-002,6.193687E-002,6.193687E-002,6.193687E-002,6.193687E-002,6.193687E-002,6.193687E-002,6.193687E-002,6.193687E-002,6.193687E-002,
   **   ~~~   ** Air System Named = CENTRAL SYSTEM did not converge for energy
   **   ~~~   ** Check values should be zero. Most Recent values listed first.
   **   ~~~   ** Demand-to-Supply interface energy check value iteration history trace: 1223.752705,1223.752704,1223.752704,1223.752704,1223.752704,1223.752704,1223.752704,1223.752704,1223.752704,1223.752704,
   **   ~~~   ** Supply-to-demand interface deck 1 energy check value iteration history trace: 2020.257932,2020.257931,2020.257931,2020.257931,2020.257931,2020.257931,2020.257931,2020.257931,2020.257931,2020.257931,
   ** Warning ** SimHVAC: Maximum iterations (20) exceeded for all HVAC loops, at ANNUAL, 01/12 13:00 - 13:15
   **   ~~~   ** The solution for one or more of the Air Loop HVAC systems did not appear to converge
   **   ~~~   ** Air System Named = CENTRAL SYSTEM did not converge for mass flow rate
   **   ~~~   ** Check values should be zero. Most Recent values listed first.
   **   ~~~   ** Demand-to-Supply interface mass flow rate check value iteration history trace: 5.142498E-002,5.142498E-002,5.142498E-002,5.142498E-002,5.142498E-002,5.142498E-002,5.142498E-002,5.142498E-002,5.142498E-002,5.142498E-002,
   **   ~~~   ** Supply-to-demand interface deck 1 mass flow rate check value iteration history trace: 5.142498E-002,5.142498E-002,5.142498E-002,5.142498E-002,5.142498E-002,5.142498E-002,5.142498E-002,5.142498E-002,5.142498E-002,5.142498E-002,
   **   ~~~   ** Air System Named = CENTRAL SYSTEM did not converge for energy
   **   ~~~   ** Check values should be zero. Most Recent values listed first.
   **   ~~~   ** Demand-to-Supply interface energy check value iteration history trace: 1019.049130,1019.049130,1019.049130,1019.049130,1019.049129,1019.049129,1019.049129,1019.049129,1019.049129,1019.049129,
   **   ~~~   ** Supply-to-demand interface deck 1 energy check value iteration history trace: 1847.607089,1847.607089,1847.607089,1847.607089,1847.607089,1847.607089,1847.607089,1847.607089,1847.607089,1847.607088,
   ** Warning ** SimHVAC: Maximum iterations (20) exceeded for all HVAC loops, at ANNUAL, 01/21 09:51 - 09:54
   **   ~~~   ** The solution for one or more of the Air Loop HVAC systems did not appear to converge
   **   ~~~   ** Air System Named = CENTRAL SYSTEM did not converge for mass flow rate
   **   ~~~   ** Check values should be zero. Most Recent values listed first.
   **   ~~~   ** Demand-to-Supply interface mass flow rate check value iteration history trace: 5.016293E-002,5.016293E-002,5.016293E-002,5.016293E-002,5.016293E-002,5.016293E-002,5.016293E-002,5.016293E-002,5.016293E-002,5.016293E-002,
   **   ~~~   ** Supply-to-demand interface deck 1 mass flow rate check value iteration history trace: 5.016293E-002,5.016293E-002,5.016293E-002,5.016293E-002,5.016293E-002,5.016293E-002,5.016293E-002,5.016293E-002,5.016293E-002,5.016293E-002,
   **   ~~~   ** Air System Named = CENTRAL SYSTEM did not converge for energy
   **   ~~~   ** Check values should be zero. Most Recent values listed first.
   **   ~~~   ** Demand-to-Supply interface energy check value iteration history trace: 992.825631,992.825631,992.825631,992.825631,992.825631,992.825631,992.825631,992.825631,992.825631,992.825631,
   **   ~~~   ** Supply-to-demand interface deck 1 energy check value iteration history trace: 1935.830341,1935.830341,1935.830341,1935.830341,1935.830341,1935.830341,1935.830341,1935.830341,1935.830341,1935.830341,
   ** Warning ** SimHVAC: Maximum iterations (20) exceeded for all HVAC loops, at ANNUAL, 01/29 11:15 - 11:30
   **   ~~~   ** The solution for one or more of the Air Loop HVAC systems did not appear to converge
   **   ~~~   ** Air System Named = CENTRAL SYSTEM did not converge for mass flow rate
   **   ~~~   ** Check values should be zero. Most Recent values listed first.
   **   ~~~   ** Demand-to-Supply interface mass flow rate check value iteration history trace: 5.625255E-002,5.625255E-002,5.625255E-002,5.625255E-002,5.625255E-002,5.625255E-002,5.625255E-002,5.625255E-002,5.625255E-002,5.625255E-002,
   **   ~~~   ** Supply-to-demand interface deck 1 mass flow rate check value iteration history trace: 5.625255E-002,5.625255E-002,5.625255E-002,5.625255E-002,5.625255E-002,5.625255E-002,5.625255E-002,5.625255E-002,5.625255E-002,5.625255E-002,
   **   ~~~   ** Air System Named = CENTRAL SYSTEM did not converge for energy
   **   ~~~   ** Check values should be zero. Most Recent values listed first.
   **   ~~~   ** Demand-to-Supply interface energy check value iteration history trace: 1112.977886,1112.977886,1112.977886,1112.977886,1112.977886,1112.977886,1112.977886,1112.977886,1112.977886,1112.977886,
   **   ~~~   ** Supply-to-demand interface deck 1 energy check value iteration history trace: 2075.803610,2075.803610,2075.803610,2075.803610,2075.803610,2075.803610,2075.803610,2075.803610,2075.803610,2075.803609,
   ** Warning ** SimHVAC: Maximum iterations (20) exceeded for all HVAC loops, at ANNUAL, 02/08 12:15 - 12:19
   **   ~~~   ** The solution for one or more of the Air Loop HVAC systems did not appear to converge
   **   ~~~   ** Air System Named = CENTRAL SYSTEM did not converge for mass flow rate
   **   ~~~   ** Check values should be zero. Most Recent values listed first.
   **   ~~~   ** Demand-to-Supply interface mass flow rate check value iteration history trace: 6.238043E-002,6.238043E-002,6.238043E-002,6.238043E-002,6.238043E-002,6.238043E-002,6.238043E-002,6.238043E-002,6.238043E-002,6.238043E-002,
   **   ~~~   ** Supply-to-demand interface deck 1 mass flow rate check value iteration history trace: 6.238043E-002,6.238043E-002,6.238043E-002,6.238043E-002,6.238043E-002,6.238043E-002,6.238043E-002,6.238043E-002,6.238043E-002,6.238043E-002,
   **   ~~~   ** Air System Named = CENTRAL SYSTEM did not converge for energy
   **   ~~~   ** Check values should be zero. Most Recent values listed first.
   **   ~~~   ** Demand-to-Supply interface energy check value iteration history trace: 1226.264060,1226.264060,1226.264060,1226.264060,1226.264060,1226.264060,1226.264060,1226.264060,1226.264060,1226.264060,
   **   ~~~   ** Supply-to-demand interface deck 1 energy check value iteration history trace: 2038.160510,2038.160510,2038.160509,2038.160509,2038.160509,2038.160509,2038.160509,2038.160509,2038.160509,2038.160509,
   ** Warning ** SimHVAC: Maximum iterations (20) exceeded for all HVAC loops, at ANNUAL, 02/09 10:00 - 10:03
   **   ~~~   ** The solution for one or more of the Air Loop HVAC systems did not appear to converge
   **   ~~~   ** Air System Named = CENTRAL SYSTEM did not converge for mass flow rate
   **   ~~~   ** Check values should be zero. Most Recent values listed first.
   **   ~~~   ** Demand-to-Supply interface mass flow rate check value iteration history trace: 6.339989E-002,6.339989E-002,6.339989E-002,6.339989E-002,6.339989E-002,6.339989E-002,6.339989E-002,6.339989E-002,6.339989E-002,6.339989E-002,
   **   ~~~   ** Supply-to-demand interface deck 1 mass flow rate check value iteration history trace: 6.339989E-002,6.339989E-002,6.339989E-002,6.339989E-002,6.339989E-002,6.339989E-002,6.339989E-002,6.339989E-002,6.339989E-002,6.339989E-002,
   **   ~~~   ** Air System Named = CENTRAL SYSTEM did not converge for energy
   **   ~~~   ** Check values should be zero. Most Recent values listed first.
   **   ~~~   ** Demand-to-Supply interface energy check value iteration history trace: 1253.158015,1253.158015,1253.158015,1253.158015,1253.158015,1253.158015,1253.158015,1253.158015,1253.158015,1253.158015,
   **   ~~~   ** Supply-to-demand interface deck 1 energy check value iteration history trace: 2320.877046,2320.877046,2320.877045,2320.877045,2320.877045,2320.877045,2320.877045,2320.877045,2320.877045,2320.877045,
   ** Warning ** SimHVAC: Maximum iterations (20) exceeded for all HVAC loops, at ANNUAL, 02/10 13:04 - 13:08
   **   ~~~   ** The solution for one or more of the Air Loop HVAC systems did not appear to converge
   **   ~~~   ** Air System Named = CENTRAL SYSTEM did not converge for mass flow rate
   **   ~~~   ** Check values should be zero. Most Recent values listed first.
   **   ~~~   ** Demand-to-Supply interface mass flow rate check value iteration history trace: 6.567017E-002,6.567017E-002,6.567017E-002,6.567017E-002,6.567017E-002,6.567017E-002,6.567017E-002,6.567017E-002,6.567017E-002,6.567017E-002,
   **   ~~~   ** Supply-to-demand interface deck 1 mass flow rate check value iteration history trace: 6.567017E-002,6.567017E-002,6.567017E-002,6.567017E-002,6.567017E-002,6.567017E-002,6.567017E-002,6.567017E-002,6.567017E-002,6.567017E-002,
   **   ~~~   ** Air System Named = CENTRAL SYSTEM did not converge for energy
   **   ~~~   ** Check values should be zero. Most Recent values listed first.
   **   ~~~   ** Demand-to-Supply interface energy check value iteration history trace: 1301.467538,1301.467538,1301.467538,1301.467537,1301.467537,1301.467537,1301.467537,1301.467537,1301.467537,1301.467537,
   **   ~~~   ** Supply-to-demand interface deck 1 energy check value iteration history trace: 2158.874689,2158.874689,2158.874688,2158.874688,2158.874688,2158.874688,2158.874688,2158.874688,2158.874688,2158.874688,
   ** Warning ** SimHVAC: Maximum iterations (20) exceeded for all HVAC loops, at ANNUAL, 02/16 10:19 - 10:21
   **   ~~~   ** The solution for one or more of the Air Loop HVAC systems did not appear to converge
   **   ~~~   ** Air System Named = CENTRAL SYSTEM did not converge for mass flow rate
   **   ~~~   ** Check values should be zero. Most Recent values listed first.
   **   ~~~   ** Demand-to-Supply interface mass flow rate check value iteration history trace: 5.980170E-002,5.980170E-002,5.980170E-002,5.980170E-002,5.980170E-002,5.980170E-002,5.980170E-002,5.980170E-002,5.980170E-002,5.980170E-002,
   **   ~~~   ** Supply-to-demand interface deck 1 mass flow rate check value iteration history trace: 5.980170E-002,5.980170E-002,5.980170E-002,5.980170E-002,5.980170E-002,5.980170E-002,5.980170E-002,5.980170E-002,5.980170E-002,5.980170E-002,
   **   ~~~   ** Air System Named = CENTRAL SYSTEM did not converge for energy
   **   ~~~   ** Check values should be zero. Most Recent values listed first.
   **   ~~~   ** Demand-to-Supply interface energy check value iteration history trace: 1177.962518,1177.962517,1177.962517,1177.962517,1177.962517,1177.962517,1177.962517,1177.962517,1177.962517,1177.962517,
   **   ~~~   ** Supply-to-demand interface deck 1 energy check value iteration history trace: 2234.963182,2234.963182,2234.963182,2234.963182,2234.963182,2234.963182,2234.963182,2234.963182,2234.963182,2234.963182,
   ** Warning ** SimHVAC: Maximum iterations (20) exceeded for all HVAC loops, at ANNUAL, 02/20 18:41 - 18:45
   **   ~~~   ** The solution for one or more of the Air Loop HVAC systems did not appear to converge
   **   ~~~   ** Air System Named = CENTRAL SYSTEM did not converge for mass flow rate
   **   ~~~   ** Check values should be zero. Most Recent values listed first.
   **   ~~~   ** Demand-to-Supply interface mass flow rate check value iteration history trace: 7.119936E-002,7.119936E-002,7.119936E-002,7.119936E-002,7.119936E-002,7.119936E-002,7.119936E-002,7.119936E-002,7.119936E-002,7.119936E-002,
   **   ~~~   ** Supply-to-demand interface deck 1 mass flow rate check value iteration history trace: 7.119936E-002,7.119936E-002,7.119936E-002,7.119936E-002,7.119936E-002,7.119936E-002,7.119936E-002,7.119936E-002,7.119936E-002,7.119936E-002,
   **   ~~~   ** Air System Named = CENTRAL SYSTEM did not converge for energy
   **   ~~~   ** Check values should be zero. Most Recent values listed first.
   **   ~~~   ** Demand-to-Supply interface energy check value iteration history trace: 1407.830601,1407.830601,1407.830601,1407.830601,1407.830601,1407.830601,1407.830601,1407.830601,1407.830601,1407.830601,
   **   ~~~   ** Supply-to-demand interface deck 1 energy check value iteration history trace: 2210.926936,2210.926936,2210.926936,2210.926936,2210.926936,2210.926935,2210.926935,2210.926935,2210.926935,2210.926935,
   ** Warning ** Temperature out of range [-100. to 200.] (PsyPsatFnTemp)
   **   ~~~   **  Routine=PsyTwbFnTdbWPb, Environment=ANNUAL, at Simulation time=02/27 09:45 - 09:48
   **   ~~~   **  Input Temperature=-100.09
   ** Warning ** SimHVAC: Maximum iterations (20) exceeded for all HVAC loops, at ANNUAL, 02/27 10:50 - 10:52
   **   ~~~   ** The solution for one or more of the Air Loop HVAC systems did not appear to converge
   **   ~~~   ** Air System Named = CENTRAL SYSTEM did not converge for mass flow rate
   **   ~~~   ** Check values should be zero. Most Recent values listed first.
   **   ~~~   ** Demand-to-Supply interface mass flow rate check value iteration history trace: 6.046350E-002,6.046350E-002,6.046350E-002,6.046350E-002,6.046350E-002,6.046350E-002,6.046350E-002,6.046350E-002,6.046350E-002,6.046350E-002,
   **   ~~~   ** Supply-to-demand interface deck 1 mass flow rate check value iteration history trace: 6.046350E-002,6.046350E-002,6.046350E-002,6.046350E-002,6.046350E-002,6.046350E-002,6.046350E-002,6.046350E-002,6.046350E-002,6.046350E-002,
   **   ~~~   ** Air System Named = CENTRAL SYSTEM did not converge for energy
   **   ~~~   ** Check values should be zero. Most Recent values listed first.
   **   ~~~   ** Demand-to-Supply interface energy check value iteration history trace: 1193.033723,1193.033723,1193.033723,1193.033723,1193.033723,1193.033723,1193.033723,1193.033723,1193.033723,1193.033722,
   **   ~~~   ** Supply-to-demand interface deck 1 energy check value iteration history trace: 2186.859212,2186.859212,2186.859212,2186.859212,2186.859212,2186.859212,2186.859212,2186.859212,2186.859212,2186.859212,
   ** Warning ** SimHVAC: Maximum iterations (20) exceeded for all HVAC loops, at ANNUAL, 03/01 09:47 - 09:49
   **   ~~~   ** The solution for one or more of the Air Loop HVAC systems did not appear to converge
   **   ~~~   ** Air System Named = CENTRAL SYSTEM did not converge for mass flow rate
   **   ~~~   ** Check values should be zero. Most Recent values listed first.
   **   ~~~   ** Demand-to-Supply interface mass flow rate check value iteration history trace: 6.007623E-002,6.007623E-002,6.007623E-002,6.007623E-002,6.007623E-002,6.007623E-002,6.007623E-002,6.007623E-002,6.007623E-002,6.007623E-002,
   **   ~~~   ** Supply-to-demand interface deck 1 mass flow rate check value iteration history trace: 6.007623E-002,6.007623E-002,6.007623E-002,6.007623E-002,6.007623E-002,6.007623E-002,6.007623E-002,6.007623E-002,6.007623E-002,6.007623E-002,
   **   ~~~   ** Air System Named = CENTRAL SYSTEM did not converge for energy
   **   ~~~   ** Check values should be zero. Most Recent values listed first.
   **   ~~~   ** Demand-to-Supply interface energy check value iteration history trace: 1190.572773,1190.572773,1190.572773,1190.572773,1190.572773,1190.572773,1190.572773,1190.572772,1190.572772,1190.572772,
   **   ~~~   ** Supply-to-demand interface deck 1 energy check value iteration history trace: 2261.599300,2261.599300,2261.599300,2261.599300,2261.599300,2261.599300,2261.599300,2261.599300,2261.599300,2261.599300,
   ** Warning ** SimHVAC: Maximum iterations (20) exceeded for all HVAC loops, at ANNUAL, 03/07 11:15 - 11:17
   **   ~~~   ** The solution for one or more of the Air Loop HVAC systems did not appear to converge
   **   ~~~   ** Air System Named = CENTRAL SYSTEM did not converge for mass flow rate
   **   ~~~   ** Check values should be zero. Most Recent values listed first.
   **   ~~~   ** Demand-to-Supply interface mass flow rate check value iteration history trace: 8.420659E-002,8.420659E-002,8.420659E-002,8.420659E-002,8.420659E-002,8.420659E-002,8.420659E-002,8.420659E-002,8.420659E-002,8.420659E-002,
   **   ~~~   ** Supply-to-demand interface deck 1 mass flow rate check value iteration history trace: 8.420659E-002,8.420659E-002,8.420659E-002,8.420659E-002,8.420659E-002,8.420659E-002,8.420659E-002,8.420659E-002,8.420659E-002,8.420659E-002,
   **   ~~~   ** Air System Named = CENTRAL SYSTEM did not converge for energy
   **   ~~~   ** Check values should be zero. Most Recent values listed first.
   **   ~~~   ** Demand-to-Supply interface energy check value iteration history trace: 1668.738585,1668.738585,1668.738585,1668.738585,1668.738585,1668.738585,1668.738585,1668.738585,1668.738585,1668.738585,
   **   ~~~   ** Supply-to-demand interface deck 1 energy check value iteration history trace: 2754.909423,2754.909423,2754.909423,2754.909422,2754.909422,2754.909422,2754.909422,2754.909422,2754.909422,2754.909422,
   ************* Simulation Error Summary *************
   ** Warning ** The following Report Variables were requested but not generated -- check.rdd file
   **   ~~~   ** Either the IDF did not contain these elements, the variable name is misspelled,
   **   ~~~   ** or the requested variable is an advanced output which requires Output : Diagnostics, DisplayAdvancedReportVariables;
   ************* Key=*, VarName=BASEBOARD TOTAL HEATING ENERGY, Frequency=
   ************* Key=*, VarName=WATER HEATER NATURALGAS ENERGY, Frequency=
   ************* Key=*, VarName=COOLING COIL TOTAL HEATING ENERGY, Frequency=
   ************* There are 34 unused schedules in input.
   ************* There are 388 unused week schedules in input.
   ************* There are 396 unused day schedules in input.
   ************* Use Output:Diagnostics,DisplayUnusedSchedules; to see them.
   *************
   ************* ===== Recurring Error Summary =====
   ************* The following recurring error messages occurred.
   *************
   *************  ** Warning ** "TOTAL HOT WATER LOAD" - Target water temperature should be less than or equal to the hot water temperature error continues...
   *************  **   ~~~   **   This error occurred 185481 total times;
   *************  **   ~~~   **   during Warmup 0 times;
   *************  **   ~~~   **   during Sizing 0 times.
   *************  **   ~~~   **   Max=13.710544  Min=5.053763E-004
   *************
   *************  ** Warning ** Temperature out of range [-100. to 200.] (PsyPsatFnTemp)
   *************  **   ~~~   **   This error occurred 1 total times;
   *************  **   ~~~   **   during Warmup 0 times;
   *************  **   ~~~   **   during Sizing 0 times.
   *************  **   ~~~   **   Max=-100.095058 C  Min=-100.095058 C
   *************
   *************  ** Warning ** SimHVAC: Exceeding Maximum iterations for all HVAC loops, during ANNUAL continues
   *************  **   ~~~   **   This error occurred 24 total times;
   *************  **   ~~~   **   during Warmup 0 times;
   *************  **   ~~~   **   during Sizing 0 times.
   *************
   *************
   ************* ===== Final Error Summary =====
   ************* The following error categories occurred.  Consider correcting or noting.
   ************* Nominally Unused Constructions
   ************* ..The nominally unused constructions warning is provided to alert you to potential conditions that can cause
   ************* ..extra time during simulation. Each construction is calculated by the algorithm indicated in the HeatBalanceAlgorithm
   ************* ..object. You may remove the constructions indicated (when you use the DisplayExtraWarnings option).
   *************
   ************* EnergyPlus Warmup Error Summary. During Warmup: 1 Warning; 0 Severe Errors.
   ************* EnergyPlus Sizing Error Summary. During Sizing: 4 Warning; 0 Severe Errors.
   ************* EnergyPlus Completed Successfully-- 185539 Warning; 0 Severe Errors; Elapsed Time=00hr 01min 51.57sec
