Program Version,EnergyPlus, Version 22.2.0-c249759bad, YMD=2023.09.01 19:26,
   ************* Beginning Zone Sizing Calculations
   ** Warning ** ProcessScheduleInput: Schedule:Constant="ALWAYS ON DISCRETE", Schedule Type Limits Name="ONOFF" not found -- will not be validated
   ** Warning ** Foundation:Kiva="KIVA FOUNDATION", no Interior Horizontal Insulation Material Name defined
   **   ~~~   ** Interior Horizontal Insulation Depth will not be used.
   ** Warning ** CheckUsedConstructions: There are 15 nominally unused constructions in input.
   **   ~~~   ** Each Unused construction is shown.
   ************* Construction=INTERIOR FLOOR
   ************* Construction=INTERIOR WINDOW
   ************* Construction=EXTERIOR DOOR
   ************* Construction=INTERIOR DOOR
   ************* Construction=GABLE CONSTRUCTION
   ************* Construction=CRAWL_FLOOR
   ************* Construction=INSULATED PIPE
   ************* Construction=PLAIN PIPE
   ************* Construction=TDD PIPE
   ************* Construction=TDD DOME
   ************* Construction=TDD DIFFUSER
   ************* Construction=CRAWL WALL
   ************* Construction=CEILING-FLOOR-LAYER
   ************* Construction=SLAB CONSTRUCTION W FULL R10 INSULATION
   ************* Construction=SLAB CONSTRUCTION W FULL R5 INSULATION
   ** Warning ** GetDXCoils: Coil:Heating:DX:SingleSpeed="DX_HEATING_COIL" curve values
   **   ~~~   ** ... Defrost Energy Input Ratio Function of Temperature Curve Name = DEFROSTEIR output is not equal to 1.0 (+ or - 10%) at rated conditions.
   **   ~~~   ** ... Curve output at rated conditions = 0.152
   ************* Beginning System Sizing Calculations
   ************* Beginning Plant Sizing Calculations
   ** Warning ** Coil:WaterHeating:AirToWaterHeatPump:Wrapped "HEAT PUMP WATER HEATER EVAPORATOR": Rated air volume flow rate per watt of rated total water heating capacity is out of range
   **   ~~~   ** Min Rated Vol Flow Per Watt=[4.027E-005], Rated Vol Flow Per Watt=[1.510E-004], Max Rated Vol Flow Per Watt=[8.056E-005]. See Input-Output Reference Manual for valid range.
   ************* SizeFan: : Potential issue with equipment sizing for Fan:OnOff HEAT PUMP WATER HEATER FAN
   **   ~~~   ** User-Specified Maximum Flow Rate [m3/s] = 0.22653
   **   ~~~   ** differs from Design Size Maximum Flow Rate [m3/s] = 7.55250E-002
   **   ~~~   ** This may, or may not, indicate mismatched component sizes.
   **   ~~~   ** Verify that the value entered is intended and is consistent with other components.
   ** Warning ** Water heater = WATER HEATER TANK:  Recovery Efficiency and Energy Factor could not be calculated during the test for standard ratings
   **   ~~~   ** Setpoint was never recovered and/or heater never turned on
   ** Warning ** Check input. Pump nominal power or motor efficiency is set to 0, for pump=MAINS PRESSURE
   ** Warning ** Output:Meter: invalid Key Name="ELECTRIC_RANGE:INTERIOREQUIPMENT:ELECTRICITY" - not found.
   ** Warning ** Output:Meter: invalid Key Name="ELECTRIC_DRYER:INTERIOREQUIPMENT:ELECTRICITY" - not found.
   ** Warning ** Output:Meter: invalid Key Name="HEATRECOVERY:ELECTRICITY" - not found.
   ** Warning ** Output:Meter: invalid Key Name="HEATING:NATURALGAS" - not found.
   ** Warning ** Output:Meter: invalid Key Name="WATERSYSTEMS:NATURALGAS" - not found.
   ** Warning ** Output:Meter: invalid Key Name="PROPANE:FACILITY" - not found.
   ** Warning ** Output:Meter: invalid Key Name="HEATING:PROPANE" - not found.
   ************* Testing Individual Branch Integrity
   ************* All Branches passed integrity testing
   ************* Testing Individual Supply Air Path Integrity
   ************* All Supply Air Paths passed integrity testing
   ************* Testing Individual Return Air Path Integrity
   ************* All Return Air Paths passed integrity testing
   ************* No node connection errors were found.
   ************* Beginning Simulation
   ** Warning ** AirflowNetwork::Solver::validate_distribution: Heat pump water heater is simulated along with an AirflowNetwork but is not included in the AirflowNetwork.
   ** Warning ** CalcEquipmentFlowRates: "TOTAL HOT WATER LOAD" - Target water temperature is greater than the hot water temperature by (0.73 C)
   **   ~~~   **  Environment=EXTREME_WINTER, at Simulation time=01/08 06:00 - 06:15
   **   ~~~   ** ...target water temperature     = 53.33 C
   **   ~~~   ** ...hot water temperature        = 52.60 C
   **   ~~~   ** ...Target water temperature should be less than or equal to the hot water temperature. Verify temperature setpoints and schedules.
   ** Warning ** SimHVAC: Maximum iterations (20) exceeded for all HVAC loops, at ANNUAL, 01/20 12:00 - 12:08
   **   ~~~   ** The solution for one or more of the Air Loop HVAC systems did not appear to converge
   **   ~~~   ** Air System Named = CENTRAL SYSTEM did not converge for mass flow rate
   **   ~~~   ** Check values should be zero. Most Recent values listed first.
   **   ~~~   ** Demand-to-Supply interface mass flow rate check value iteration history trace: 7.482503E-002,7.482503E-002,7.482503E-002,7.482503E-002,7.482503E-002,7.482503E-002,7.482503E-002,7.482503E-002,7.482503E-002,7.482503E-002,
   **   ~~~   ** Supply-to-demand interface deck 1 mass flow rate check value iteration history trace: 7.482503E-002,7.482503E-002,7.482503E-002,7.482503E-002,7.482503E-002,7.482503E-002,7.482503E-002,7.482503E-002,7.482503E-002,7.482503E-002,
   **   ~~~   ** Air System Named = CENTRAL SYSTEM did not converge for energy
   **   ~~~   ** Check values should be zero. Most Recent values listed first.
   **   ~~~   ** Demand-to-Supply interface energy check value iteration history trace: 1481.281736,1481.281736,1481.281736,1481.281736,1481.281736,1481.281736,1481.281736,1481.281736,1481.281736,1481.281736,
   **   ~~~   ** Supply-to-demand interface deck 1 energy check value iteration history trace: 2345.913915,2345.913915,2345.913915,2345.913915,2345.913915,2345.913915,2345.913915,2345.913915,2345.913915,2345.913915,
   ** Warning ** SimHVAC: Maximum iterations (20) exceeded for all HVAC loops, at ANNUAL, 01/31 14:45 - 15:00
   **   ~~~   ** The solution for one or more of the Air Loop HVAC systems did not appear to converge
   **   ~~~   ** Air System Named = CENTRAL SYSTEM did not converge for mass flow rate
   **   ~~~   ** Check values should be zero. Most Recent values listed first.
   **   ~~~   ** Demand-to-Supply interface mass flow rate check value iteration history trace: 6.956785E-002,6.956785E-002,6.956785E-002,6.956785E-002,6.956785E-002,6.956785E-002,6.956785E-002,6.956785E-002,6.956785E-002,6.956785E-002,
   **   ~~~   ** Supply-to-demand interface deck 1 mass flow rate check value iteration history trace: 6.956785E-002,6.956785E-002,6.956785E-002,6.956785E-002,6.956785E-002,6.956785E-002,6.956785E-002,6.956785E-002,6.956785E-002,6.956785E-002,
   **   ~~~   ** Air System Named = CENTRAL SYSTEM did not converge for energy
   **   ~~~   ** Check values should be zero. Most Recent values listed first.
   **   ~~~   ** Demand-to-Supply interface energy check value iteration history trace: 1381.528049,1381.528048,1381.528048,1381.528048,1381.528048,1381.528048,1381.528048,1381.528048,1381.528048,1381.528048,
   **   ~~~   ** Supply-to-demand interface deck 1 energy check value iteration history trace: 2056.296635,2056.296635,2056.296634,2056.296634,2056.296634,2056.296634,2056.296634,2056.296634,2056.296634,2056.296633,
   ** Warning ** SimHVAC: Maximum iterations (20) exceeded for all HVAC loops, at ANNUAL, 02/09 19:15 - 19:30
   **   ~~~   ** The solution for one or more of the Air Loop HVAC systems did not appear to converge
   **   ~~~   ** Air System Named = CENTRAL SYSTEM did not converge for mass flow rate
   **   ~~~   ** Check values should be zero. Most Recent values listed first.
   **   ~~~   ** Demand-to-Supply interface mass flow rate check value iteration history trace: 0.106676,0.106676,0.106676,0.106676,0.106676,0.106676,0.106676,0.106676,0.106676,0.106676,
   **   ~~~   ** Supply-to-demand interface deck 1 mass flow rate check value iteration history trace: 0.106676,0.106676,0.106676,0.106676,0.106676,0.106676,0.106676,0.106676,0.106676,0.106676,
   **   ~~~   ** Air System Named = CENTRAL SYSTEM did not converge for energy
   **   ~~~   ** Check values should be zero. Most Recent values listed first.
   **   ~~~   ** Demand-to-Supply interface energy check value iteration history trace: 2115.362903,2115.362903,2115.362903,2115.362902,2115.362902,2115.362902,2115.362902,2115.362902,2115.362902,2115.362902,
   **   ~~~   ** Supply-to-demand interface deck 1 energy check value iteration history trace: 3185.386089,3185.386089,3185.386089,3185.386089,3185.386088,3185.386088,3185.386088,3185.386088,3185.386087,3185.386087,
   ** Warning ** SimHVAC: Maximum iterations (20) exceeded for all HVAC loops, at ANNUAL, 02/11 12:03 - 12:06
   **   ~~~   ** The solution for one or more of the Air Loop HVAC systems did not appear to converge
   **   ~~~   ** Air System Named = CENTRAL SYSTEM did not converge for mass flow rate
   **   ~~~   ** Check values should be zero. Most Recent values listed first.
   **   ~~~   ** Demand-to-Supply interface mass flow rate check value iteration history trace: 5.818761E-002,5.818761E-002,5.818761E-002,5.818761E-002,5.818761E-002,5.818761E-002,5.818761E-002,5.818761E-002,5.818761E-002,5.818761E-002,
   **   ~~~   ** Supply-to-demand interface deck 1 mass flow rate check value iteration history trace: 5.818761E-002,5.818761E-002,5.818761E-002,5.818761E-002,5.818761E-002,5.818761E-002,5.818761E-002,5.818761E-002,5.818761E-002,5.818761E-002,
   **   ~~~   ** Air System Named = CENTRAL SYSTEM did not converge for energy
   **   ~~~   ** Check values should be zero. Most Recent values listed first.
   **   ~~~   ** Demand-to-Supply interface energy check value iteration history trace: 1147.856506,1147.856506,1147.856506,1147.856506,1147.856506,1147.856506,1147.856506,1147.856506,1147.856506,1147.856506,
   **   ~~~   ** Supply-to-demand interface deck 1 energy check value iteration history trace: 2029.813602,2029.813602,2029.813602,2029.813602,2029.813602,2029.813602,2029.813602,2029.813602,2029.813601,2029.813601,
   ** Warning ** SimHVAC: Maximum iterations (20) exceeded for all HVAC loops, at ANNUAL, 02/16 12:45 - 12:52
   **   ~~~   ** The solution for one or more of the Air Loop HVAC systems did not appear to converge
   **   ~~~   ** Air System Named = CENTRAL SYSTEM did not converge for mass flow rate
   **   ~~~   ** Check values should be zero. Most Recent values listed first.
   **   ~~~   ** Demand-to-Supply interface mass flow rate check value iteration history trace: 7.118640E-002,7.118640E-002,7.118640E-002,7.118640E-002,7.118640E-002,7.118640E-002,7.118640E-002,7.118640E-002,7.118640E-002,7.118640E-002,
   **   ~~~   ** Supply-to-demand interface deck 1 mass flow rate check value iteration history trace: 7.118640E-002,7.118640E-002,7.118640E-002,7.118640E-002,7.118640E-002,7.118640E-002,7.118640E-002,7.118640E-002,7.118640E-002,7.118640E-002,
   **   ~~~   ** Air System Named = CENTRAL SYSTEM did not converge for energy
   **   ~~~   ** Check values should be zero. Most Recent values listed first.
   **   ~~~   ** Demand-to-Supply interface energy check value iteration history trace: 1406.711505,1406.711505,1406.711505,1406.711504,1406.711504,1406.711504,1406.711504,1406.711504,1406.711504,1406.711504,
   **   ~~~   ** Supply-to-demand interface deck 1 energy check value iteration history trace: 2202.784505,2202.784505,2202.784505,2202.784504,2202.784504,2202.784504,2202.784504,2202.784504,2202.784504,2202.784504,
   ** Warning ** SimHVAC: Maximum iterations (20) exceeded for all HVAC loops, at ANNUAL, 02/21 19:00 - 19:08
   **   ~~~   ** The solution for one or more of the Air Loop HVAC systems did not appear to converge
   **   ~~~   ** Air System Named = CENTRAL SYSTEM did not converge for mass flow rate
   **   ~~~   ** Check values should be zero. Most Recent values listed first.
   **   ~~~   ** Demand-to-Supply interface mass flow rate check value iteration history trace: 8.615437E-002,8.615437E-002,8.615437E-002,8.615437E-002,8.615437E-002,8.615437E-002,8.615437E-002,8.615437E-002,8.615437E-002,8.615437E-002,
   **   ~~~   ** Supply-to-demand interface deck 1 mass flow rate check value iteration history trace: 8.615437E-002,8.615437E-002,8.615437E-002,8.615437E-002,8.615437E-002,8.615437E-002,8.615437E-002,8.615437E-002,8.615437E-002,8.615437E-002,
   **   ~~~   ** Air System Named = CENTRAL SYSTEM did not converge for energy
   **   ~~~   ** Check values should be zero. Most Recent values listed first.
   **   ~~~   ** Demand-to-Supply interface energy check value iteration history trace: 1700.796139,1700.796139,1700.796139,1700.796139,1700.796139,1700.796139,1700.796139,1700.796139,1700.796138,1700.796138,
   **   ~~~   ** Supply-to-demand interface deck 1 energy check value iteration history trace: 2610.817071,2610.817071,2610.817071,2610.817070,2610.817070,2610.817070,2610.817070,2610.817070,2610.817070,2610.817069,
   ** Warning ** SimHVAC: Maximum iterations (20) exceeded for all HVAC loops, at ANNUAL, 02/25 12:30 - 12:45
   **   ~~~   ** The solution for one or more of the Air Loop HVAC systems did not appear to converge
   **   ~~~   ** Air System Named = CENTRAL SYSTEM did not converge for mass flow rate
   **   ~~~   ** Check values should be zero. Most Recent values listed first.
   **   ~~~   ** Demand-to-Supply interface mass flow rate check value iteration history trace: 7.256931E-002,7.256931E-002,7.256931E-002,7.256931E-002,7.256931E-002,7.256931E-002,7.256931E-002,7.256931E-002,7.256931E-002,7.256931E-002,
   **   ~~~   ** Supply-to-demand interface deck 1 mass flow rate check value iteration history trace: 7.256931E-002,7.256931E-002,7.256931E-002,7.256931E-002,7.256931E-002,7.256931E-002,7.256931E-002,7.256931E-002,7.256931E-002,7.256931E-002,
   **   ~~~   ** Air System Named = CENTRAL SYSTEM did not converge for energy
   **   ~~~   ** Check values should be zero. Most Recent values listed first.
   **   ~~~   ** Demand-to-Supply interface energy check value iteration history trace: 1438.566414,1438.566414,1438.566414,1438.566414,1438.566414,1438.566414,1438.566414,1438.566414,1438.566414,1438.566413,
   **   ~~~   ** Supply-to-demand interface deck 1 energy check value iteration history trace: 2178.709592,2178.709592,2178.709592,2178.709591,2178.709591,2178.709591,2178.709591,2178.709591,2178.709591,2178.709590,
   ** Warning ** SimHVAC: Maximum iterations (20) exceeded for all HVAC loops, at ANNUAL, 02/27 12:15 - 12:22
   **   ~~~   ** The solution for one or more of the Air Loop HVAC systems did not appear to converge
   **   ~~~   ** Air System Named = CENTRAL SYSTEM did not converge for mass flow rate
   **   ~~~   ** Check values should be zero. Most Recent values listed first.
   **   ~~~   ** Demand-to-Supply interface mass flow rate check value iteration history trace: 5.591396E-002,5.591396E-002,5.591396E-002,5.591396E-002,5.591396E-002,5.591396E-002,5.591396E-002,5.591396E-002,5.591396E-002,5.591396E-002,
   **   ~~~   ** Supply-to-demand interface deck 1 mass flow rate check value iteration history trace: 5.591396E-002,5.591396E-002,5.591396E-002,5.591396E-002,5.591396E-002,5.591396E-002,5.591396E-002,5.591396E-002,5.591396E-002,5.591396E-002,
   **   ~~~   ** Air System Named = CENTRAL SYSTEM did not converge for energy
   **   ~~~   ** Check values should be zero. Most Recent values listed first.
   **   ~~~   ** Demand-to-Supply interface energy check value iteration history trace: 1107.052918,1107.052918,1107.052918,1107.052918,1107.052917,1107.052917,1107.052917,1107.052917,1107.052917,1107.052916,
   **   ~~~   ** Supply-to-demand interface deck 1 energy check value iteration history trace: 1974.600997,1974.600997,1974.600997,1974.600996,1974.600996,1974.600996,1974.600995,1974.600995,1974.600995,1974.600994,
   **   ~~~   ** Node named ZONE INLET NODE shows oscillating temperatures across iterations with a repeated value of 35.144754
   **   ~~~   ** Node named ZONE INLET NODE temperature [C] iteration history trace (most recent first): 35.144754,35.144754,35.144753,35.144753,35.144753,35.144753,35.144752,35.144752,35.144752,35.144751,
   ** Warning ** SimHVAC: Maximum iterations (20) exceeded for all HVAC loops, at ANNUAL, 03/05 17:00 - 17:08
   **   ~~~   ** The solution for one or more of the Air Loop HVAC systems did not appear to converge
   **   ~~~   ** Air System Named = CENTRAL SYSTEM did not converge for mass flow rate
   **   ~~~   ** Check values should be zero. Most Recent values listed first.
   **   ~~~   ** Demand-to-Supply interface mass flow rate check value iteration history trace: 5.001537E-002,5.001537E-002,5.001537E-002,5.001537E-002,5.001537E-002,5.001537E-002,5.001537E-002,5.001537E-002,5.001537E-002,5.001537E-002,
   **   ~~~   ** Supply-to-demand interface deck 1 mass flow rate check value iteration history trace: 5.001537E-002,5.001537E-002,5.001537E-002,5.001537E-002,5.001537E-002,5.001537E-002,5.001537E-002,5.001537E-002,5.001537E-002,5.001537E-002,
   **   ~~~   ** Air System Named = CENTRAL SYSTEM did not converge for energy
   **   ~~~   ** Check values should be zero. Most Recent values listed first.
   **   ~~~   ** Demand-to-Supply interface energy check value iteration history trace: 991.730041,991.730041,991.730041,991.730041,991.730041,991.730041,991.730040,991.730040,991.730040,991.730040,
   **   ~~~   ** Supply-to-demand interface deck 1 energy check value iteration history trace: 1721.164139,1721.164139,1721.164139,1721.164139,1721.164138,1721.164138,1721.164138,1721.164138,1721.164138,1721.164138,
   ** Warning ** SimHVAC: Maximum iterations (20) exceeded for all HVAC loops, at ANNUAL, 03/25 20:15 - 20:22
   **   ~~~   ** The solution for one or more of the Air Loop HVAC systems did not appear to converge
   **   ~~~   ** Air System Named = CENTRAL SYSTEM did not converge for mass flow rate
   **   ~~~   ** Check values should be zero. Most Recent values listed first.
   **   ~~~   ** Demand-to-Supply interface mass flow rate check value iteration history trace: 8.225057E-002,8.225057E-002,8.225057E-002,8.225057E-002,8.225057E-002,8.225057E-002,8.225057E-002,8.225057E-002,8.225057E-002,8.225057E-002,
   **   ~~~   ** Supply-to-demand interface deck 1 mass flow rate check value iteration history trace: 8.225057E-002,8.225057E-002,8.225057E-002,8.225057E-002,8.225057E-002,8.225057E-002,8.225057E-002,8.225057E-002,8.225057E-002,8.225057E-002,
   **   ~~~   ** Air System Named = CENTRAL SYSTEM did not converge for energy
   **   ~~~   ** Check values should be zero. Most Recent values listed first.
   **   ~~~   ** Demand-to-Supply interface energy check value iteration history trace: 1624.970562,1624.970562,1624.970562,1624.970562,1624.970562,1624.970562,1624.970562,1624.970562,1624.970561,1624.970561,
   **   ~~~   ** Supply-to-demand interface deck 1 energy check value iteration history trace: 2513.384807,2513.384807,2513.384806,2513.384806,2513.384806,2513.384806,2513.384806,2513.384806,2513.384805,2513.384805,
   ** Warning ** SimHVAC: Maximum iterations (20) exceeded for all HVAC loops, at ANNUAL, 03/30 08:30 - 08:45
   **   ~~~   ** The solution for one or more of the Air Loop HVAC systems did not appear to converge
   **   ~~~   ** Air System Named = CENTRAL SYSTEM did not converge for mass flow rate
   **   ~~~   ** Check values should be zero. Most Recent values listed first.
   **   ~~~   ** Demand-to-Supply interface mass flow rate check value iteration history trace: 8.067658E-002,8.067658E-002,8.067658E-002,8.067658E-002,8.067658E-002,8.067658E-002,8.067658E-002,8.067658E-002,8.067658E-002,8.067658E-002,
   **   ~~~   ** Supply-to-demand interface deck 1 mass flow rate check value iteration history trace: 8.067658E-002,8.067658E-002,8.067658E-002,8.067658E-002,8.067658E-002,8.067658E-002,8.067658E-002,8.067658E-002,8.067658E-002,8.067658E-002,
   **   ~~~   ** Air System Named = CENTRAL SYSTEM did not converge for energy
   **   ~~~   ** Check values should be zero. Most Recent values listed first.
   **   ~~~   ** Demand-to-Supply interface energy check value iteration history trace: 1598.726838,1598.726838,1598.726837,1598.726837,1598.726837,1598.726837,1598.726837,1598.726837,1598.726837,1598.726837,
   **   ~~~   ** Supply-to-demand interface deck 1 energy check value iteration history trace: 2519.539002,2519.539002,2519.539002,2519.539002,2519.539002,2519.539001,2519.539001,2519.539001,2519.539001,2519.539001,
   ** Warning ** SimHVAC: Maximum iterations (20) exceeded for all HVAC loops, at ANNUAL, 04/02 21:30 - 21:45
   **   ~~~   ** The solution for one or more of the Air Loop HVAC systems did not appear to converge
   **   ~~~   ** Air System Named = CENTRAL SYSTEM did not converge for mass flow rate
   **   ~~~   ** Check values should be zero. Most Recent values listed first.
   **   ~~~   ** Demand-to-Supply interface mass flow rate check value iteration history trace: 6.009549E-002,6.009549E-002,6.009549E-002,6.009549E-002,6.009549E-002,6.009549E-002,6.009549E-002,6.009549E-002,6.009549E-002,6.009549E-002,
   **   ~~~   ** Supply-to-demand interface deck 1 mass flow rate check value iteration history trace: 6.009549E-002,6.009549E-002,6.009549E-002,6.009549E-002,6.009549E-002,6.009549E-002,6.009549E-002,6.009549E-002,6.009549E-002,6.009549E-002,
   **   ~~~   ** Air System Named = CENTRAL SYSTEM did not converge for energy
   **   ~~~   ** Check values should be zero. Most Recent values listed first.
   **   ~~~   ** Demand-to-Supply interface energy check value iteration history trace: 1189.114477,1189.114477,1189.114477,1189.114477,1189.114477,1189.114477,1189.114477,1189.114477,1189.114477,1189.114477,
   **   ~~~   ** Supply-to-demand interface deck 1 energy check value iteration history trace: 2069.036422,2069.036422,2069.036422,2069.036422,2069.036422,2069.036422,2069.036422,2069.036422,2069.036422,2069.036422,
   ** Warning ** SimHVAC: Maximum iterations (20) exceeded for all HVAC loops, at ANNUAL, 04/28 06:30 - 06:38
   **   ~~~   ** The solution for one or more of the Air Loop HVAC systems did not appear to converge
   **   ~~~   ** Air System Named = CENTRAL SYSTEM did not converge for mass flow rate
   **   ~~~   ** Check values should be zero. Most Recent values listed first.
   **   ~~~   ** Demand-to-Supply interface mass flow rate check value iteration history trace: 6.508714E-002,6.508714E-002,6.508714E-002,6.508714E-002,6.508714E-002,6.508714E-002,6.508714E-002,6.508714E-002,6.508714E-002,6.508714E-002,
   **   ~~~   ** Supply-to-demand interface deck 1 mass flow rate check value iteration history trace: 6.508714E-002,6.508714E-002,6.508714E-002,6.508714E-002,6.508714E-002,6.508714E-002,6.508714E-002,6.508714E-002,6.508714E-002,6.508714E-002,
   **   ~~~   ** Air System Named = CENTRAL SYSTEM did not converge for energy
   **   ~~~   ** Check values should be zero. Most Recent values listed first.
   **   ~~~   ** Demand-to-Supply interface energy check value iteration history trace: 1288.962932,1288.962932,1288.962932,1288.962932,1288.962932,1288.962932,1288.962932,1288.962932,1288.962931,1288.962931,
   **   ~~~   ** Supply-to-demand interface deck 1 energy check value iteration history trace: 2239.462588,2239.462588,2239.462588,2239.462588,2239.462588,2239.462588,2239.462587,2239.462587,2239.462587,2239.462587,
   ** Warning ** SimHVAC: Maximum iterations (20) exceeded for all HVAC loops, at ANNUAL, 06/01 05:23 - 05:30
   **   ~~~   ** The solution for one or more of the Air Loop HVAC systems did not appear to converge
   **   ~~~   ** Air System Named = CENTRAL SYSTEM did not converge for mass flow rate
   **   ~~~   ** Check values should be zero. Most Recent values listed first.
   **   ~~~   ** Demand-to-Supply interface mass flow rate check value iteration history trace: 7.592220E-002,7.592220E-002,7.592220E-002,7.592220E-002,7.592220E-002,7.592220E-002,7.592220E-002,7.592220E-002,7.592220E-002,7.592220E-002,
   **   ~~~   ** Supply-to-demand interface deck 1 mass flow rate check value iteration history trace: 7.592220E-002,7.592220E-002,7.592220E-002,7.592220E-002,7.592220E-002,7.592220E-002,7.592220E-002,7.592220E-002,7.592220E-002,7.592220E-002,
   **   ~~~   ** Air System Named = CENTRAL SYSTEM did not converge for energy
   **   ~~~   ** Check values should be zero. Most Recent values listed first.
   **   ~~~   ** Demand-to-Supply interface energy check value iteration history trace: 1779.538529,1779.538529,1779.538530,1779.538530,1779.538530,1779.538530,1779.538530,1779.538531,1779.538531,1779.538531,
   **   ~~~   ** Supply-to-demand interface deck 1 energy check value iteration history trace: 1013.712366,1013.712366,1013.712367,1013.712367,1013.712367,1013.712367,1013.712367,1013.712367,1013.712367,1013.712367,
   ************* Simulation Error Summary *************
   ** Warning ** The following Report Variables were requested but not generated -- check.rdd file
   **   ~~~   ** Either the IDF did not contain these elements, the variable name is misspelled,
   **   ~~~   ** or the requested variable is an advanced output which requires Output : Diagnostics, DisplayAdvancedReportVariables;
   ************* Key=*, VarName=BASEBOARD TOTAL HEATING ENERGY, Frequency=
   ************* Key=*, VarName=WATER HEATER NATURALGAS ENERGY, Frequency=
   ************* Key=*, VarName=COOLING COIL TOTAL HEATING ENERGY, Frequency=
   ************* There are 34 unused schedules in input.
   ************* There are 388 unused week schedules in input.
   ************* There are 396 unused day schedules in input.
   ************* Use Output:Diagnostics,DisplayUnusedSchedules; to see them.
   *************
   ************* ===== Recurring Error Summary =====
   ************* The following recurring error messages occurred.
   *************
   *************  ** Warning ** "TOTAL HOT WATER LOAD" - Target water temperature should be less than or equal to the hot water temperature error continues...
   *************  **   ~~~   **   This error occurred 112403 total times;
   *************  **   ~~~   **   during Warmup 0 times;
   *************  **   ~~~   **   during Sizing 0 times.
   *************  **   ~~~   **   Max=9.64926  Min=7.418426E-004
   *************
   *************  ** Warning ** SimHVAC: Exceeding Maximum iterations for all HVAC loops, during ANNUAL continues
   *************  **   ~~~   **   This error occurred 5 total times;
   *************  **   ~~~   **   during Warmup 0 times;
   *************  **   ~~~   **   during Sizing 0 times.
   *************
   *************
   ************* ===== Final Error Summary =====
   ************* The following error categories occurred.  Consider correcting or noting.
   ************* Nominally Unused Constructions
   ************* ..The nominally unused constructions warning is provided to alert you to potential conditions that can cause
   ************* ..extra time during simulation. Each construction is calculated by the algorithm indicated in the HeatBalanceAlgorithm
   ************* ..object. You may remove the constructions indicated (when you use the DisplayExtraWarnings option).
   *************
   ************* EnergyPlus Warmup Error Summary. During Warmup: 1 Warning; 0 Severe Errors.
   ************* EnergyPlus Sizing Error Summary. During Sizing: 4 Warning; 0 Severe Errors.
   ************* EnergyPlus Completed Successfully-- 112439 Warning; 0 Severe Errors; Elapsed Time=00hr 01min 25.40sec
