Program Version,EnergyPlus, Version 22.2.0-c249759bad, YMD=2023.09.01 15:27,
   ************* Beginning Zone Sizing Calculations
   ** Warning ** ProcessScheduleInput: Schedule:Constant="ALWAYS ON DISCRETE", Schedule Type Limits Name="ONOFF" not found -- will not be validated
   ** Warning ** Foundation:Kiva="KIVA FOUNDATION", no Interior Horizontal Insulation Material Name defined
   **   ~~~   ** Interior Horizontal Insulation Depth will not be used.
   ** Warning ** CheckUsedConstructions: There are 15 nominally unused constructions in input.
   **   ~~~   ** Each Unused construction is shown.
   ************* Construction=INTERIOR FLOOR
   ************* Construction=INTERIOR WINDOW
   ************* Construction=EXTERIOR DOOR
   ************* Construction=INTERIOR DOOR
   ************* Construction=GABLE CONSTRUCTION
   ************* Construction=CRAWL_FLOOR
   ************* Construction=INSULATED PIPE
   ************* Construction=PLAIN PIPE
   ************* Construction=TDD PIPE
   ************* Construction=TDD DOME
   ************* Construction=TDD DIFFUSER
   ************* Construction=CRAWL WALL
   ************* Construction=CEILING-FLOOR-LAYER
   ************* Construction=SLAB CONSTRUCTION W FULL R10 INSULATION
   ************* Construction=SLAB CONSTRUCTION W FULL R5 INSULATION
   ** Warning ** GetDXCoils: Coil:Heating:DX:SingleSpeed="DX_HEATING_COIL" curve values
   **   ~~~   ** ... Defrost Energy Input Ratio Function of Temperature Curve Name = DEFROSTEIR output is not equal to 1.0 (+ or - 10%) at rated conditions.
   **   ~~~   ** ... Curve output at rated conditions = 0.152
   ************* Beginning System Sizing Calculations
   ************* Beginning Plant Sizing Calculations
   ** Warning ** SizeDXCoil Coil:Cooling:DX:SingleSpeed DX_COOLING_COIL
   **   ~~~   ** ...Gross Rated Total Cooling Capacity [W] will be limited by the maximum rated volume flow per rated total capacity ratio.
   **   ~~~   ** ...DX coil volume flow rate ( m3/s ) = 0.485952
   **   ~~~   ** ...Requested capacity ( W ) = 5932.243
   **   ~~~   ** ...Requested flow/capacity ratio ( m3/s/W ) = 8.191E-005
   **   ~~~   ** ...Maximum flow/capacity ratio ( m3/s/W ) = 6.041E-005
   **   ~~~   ** ...Adjusted capacity ( W ) = 8044.235
   ** Warning ** Coil:WaterHeating:AirToWaterHeatPump:Wrapped "HEAT PUMP WATER HEATER EVAPORATOR": Rated air volume flow rate per watt of rated total water heating capacity is out of range
   **   ~~~   ** Min Rated Vol Flow Per Watt=[4.027E-005], Rated Vol Flow Per Watt=[1.386E-004], Max Rated Vol Flow Per Watt=[8.056E-005]. See Input-Output Reference Manual for valid range.
   ** Warning ** Water heater = WATER HEATER TANK:  Recovery Efficiency and Energy Factor could not be calculated during the test for standard ratings
   **   ~~~   ** Setpoint was never recovered and/or heater never turned on
   ** Warning ** Check input. Pump nominal power or motor efficiency is set to 0, for pump=MAINS PRESSURE
   ** Warning ** Output:Meter: invalid Key Name="ELECTRIC_RANGE:INTERIOREQUIPMENT:ELECTRICITY" - not found.
   ** Warning ** Output:Meter: invalid Key Name="ELECTRIC_DRYER:INTERIOREQUIPMENT:ELECTRICITY" - not found.
   ** Warning ** Output:Meter: invalid Key Name="HEATRECOVERY:ELECTRICITY" - not found.
   ** Warning ** Output:Meter: invalid Key Name="HEATING:NATURALGAS" - not found.
   ** Warning ** Output:Meter: invalid Key Name="WATERSYSTEMS:NATURALGAS" - not found.
   ** Warning ** Output:Meter: invalid Key Name="PROPANE:FACILITY" - not found.
   ** Warning ** Output:Meter: invalid Key Name="HEATING:PROPANE" - not found.
   ************* Testing Individual Branch Integrity
   ************* All Branches passed integrity testing
   ************* Testing Individual Supply Air Path Integrity
   ************* All Supply Air Paths passed integrity testing
   ************* Testing Individual Return Air Path Integrity
   ************* All Return Air Paths passed integrity testing
   ************* No node connection errors were found.
   ************* Beginning Simulation
   ** Warning ** AirflowNetwork::Solver::validate_distribution: Heat pump water heater is simulated along with an AirflowNetwork but is not included in the AirflowNetwork.
   ** Warning ** CalcEquipmentFlowRates: "TOTAL HOT WATER LOAD" - Target water temperature is greater than the hot water temperature by (1.70 C)
   **   ~~~   **  Environment=EXTREME_WINTER, at Simulation time=12/22 06:00 - 06:15
   **   ~~~   ** ...target water temperature     = 53.33 C
   **   ~~~   ** ...hot water temperature        = 51.63 C
   **   ~~~   ** ...Target water temperature should be less than or equal to the hot water temperature. Verify temperature setpoints and schedules.
   ** Warning ** SimHVAC: Maximum iterations (20) exceeded for all HVAC loops, at ANNUAL, 01/02 14:00 - 14:15
   **   ~~~   ** The solution for one or more of the Air Loop HVAC systems did not appear to converge
   **   ~~~   ** Air System Named = CENTRAL SYSTEM did not converge for mass flow rate
   **   ~~~   ** Check values should be zero. Most Recent values listed first.
   **   ~~~   ** Demand-to-Supply interface mass flow rate check value iteration history trace: 4.788170E-002,4.788170E-002,4.788170E-002,4.788170E-002,4.788170E-002,4.788170E-002,4.788170E-002,4.788170E-002,4.788170E-002,4.788170E-002,
   **   ~~~   ** Supply-to-demand interface deck 1 mass flow rate check value iteration history trace: 4.788170E-002,4.788170E-002,4.788170E-002,4.788170E-002,4.788170E-002,4.788170E-002,4.788170E-002,4.788170E-002,4.788170E-002,4.788170E-002,
   **   ~~~   ** Air System Named = CENTRAL SYSTEM did not converge for energy
   **   ~~~   ** Check values should be zero. Most Recent values listed first.
   **   ~~~   ** Demand-to-Supply interface energy check value iteration history trace: 949.648168,949.648168,949.648168,949.648168,949.648168,949.648168,949.648168,949.648168,949.648168,949.648168,
   **   ~~~   ** Supply-to-demand interface deck 1 energy check value iteration history trace: 1539.052945,1539.052945,1539.052945,1539.052945,1539.052945,1539.052945,1539.052945,1539.052945,1539.052945,1539.052944,
   ** Warning ** SimHVAC: Maximum iterations (20) exceeded for all HVAC loops, at ANNUAL, 02/26 22:12 - 22:15
   **   ~~~   ** The solution for one or more of the Air Loop HVAC systems did not appear to converge
   **   ~~~   ** Air System Named = CENTRAL SYSTEM did not converge for mass flow rate
   **   ~~~   ** Check values should be zero. Most Recent values listed first.
   **   ~~~   ** Demand-to-Supply interface mass flow rate check value iteration history trace: 6.654910E-002,6.654910E-002,6.654910E-002,6.654910E-002,6.654910E-002,6.654910E-002,6.654910E-002,6.654910E-002,6.654910E-002,6.654910E-002,
   **   ~~~   ** Supply-to-demand interface deck 1 mass flow rate check value iteration history trace: 6.654910E-002,6.654910E-002,6.654910E-002,6.654910E-002,6.654910E-002,6.654910E-002,6.654910E-002,6.654910E-002,6.654910E-002,6.654910E-002,
   **   ~~~   ** Air System Named = CENTRAL SYSTEM did not converge for energy
   **   ~~~   ** Check values should be zero. Most Recent values listed first.
   **   ~~~   ** Demand-to-Supply interface energy check value iteration history trace: 1242.494965,1242.494965,1242.494965,1242.494965,1242.494965,1242.494965,1242.494965,1242.494965,1242.494965,1242.494965,
   **   ~~~   ** Supply-to-demand interface deck 1 energy check value iteration history trace: 2078.155328,2078.155328,2078.155328,2078.155328,2078.155328,2078.155328,2078.155328,2078.155327,2078.155327,2078.155327,
   ** Warning ** SimHVAC: Maximum iterations (20) exceeded for all HVAC loops, at ANNUAL, 03/28 18:45 - 18:49
   **   ~~~   ** The solution for one or more of the Air Loop HVAC systems did not appear to converge
   **   ~~~   ** Air System Named = CENTRAL SYSTEM did not converge for mass flow rate
   **   ~~~   ** Check values should be zero. Most Recent values listed first.
   **   ~~~   ** Demand-to-Supply interface mass flow rate check value iteration history trace: 6.700853E-002,6.700853E-002,6.700853E-002,6.700853E-002,6.700853E-002,6.700853E-002,6.700853E-002,6.700853E-002,6.700853E-002,6.700853E-002,
   **   ~~~   ** Supply-to-demand interface deck 1 mass flow rate check value iteration history trace: 6.700853E-002,6.700853E-002,6.700853E-002,6.700853E-002,6.700853E-002,6.700853E-002,6.700853E-002,6.700853E-002,6.700853E-002,6.700853E-002,
   **   ~~~   ** Air System Named = CENTRAL SYSTEM did not converge for energy
   **   ~~~   ** Check values should be zero. Most Recent values listed first.
   **   ~~~   ** Demand-to-Supply interface energy check value iteration history trace: 1325.482512,1325.482512,1325.482512,1325.482512,1325.482512,1325.482512,1325.482512,1325.482512,1325.482512,1325.482512,
   **   ~~~   ** Supply-to-demand interface deck 1 energy check value iteration history trace: 2228.184252,2228.184252,2228.184252,2228.184252,2228.184252,2228.184252,2228.184252,2228.184251,2228.184251,2228.184251,
   ** Warning ** SimHVAC: Maximum iterations (20) exceeded for all HVAC loops, at ANNUAL, 03/30 18:30 - 18:45
   **   ~~~   ** The solution for one or more of the Air Loop HVAC systems did not appear to converge
   **   ~~~   ** Air System Named = CENTRAL SYSTEM did not converge for mass flow rate
   **   ~~~   ** Check values should be zero. Most Recent values listed first.
   **   ~~~   ** Demand-to-Supply interface mass flow rate check value iteration history trace: 6.759301E-002,6.759301E-002,6.759301E-002,6.759301E-002,6.759301E-002,6.759301E-002,6.759301E-002,6.759301E-002,6.759301E-002,6.759301E-002,
   **   ~~~   ** Supply-to-demand interface deck 1 mass flow rate check value iteration history trace: 6.759301E-002,6.759301E-002,6.759301E-002,6.759301E-002,6.759301E-002,6.759301E-002,6.759301E-002,6.759301E-002,6.759301E-002,6.759301E-002,
   **   ~~~   ** Air System Named = CENTRAL SYSTEM did not converge for energy
   **   ~~~   ** Check values should be zero. Most Recent values listed first.
   **   ~~~   ** Demand-to-Supply interface energy check value iteration history trace: 1344.261356,1344.261355,1344.261355,1344.261355,1344.261355,1344.261355,1344.261355,1344.261355,1344.261355,1344.261355,
   **   ~~~   ** Supply-to-demand interface deck 1 energy check value iteration history trace: 2476.537094,2476.537094,2476.537094,2476.537094,2476.537094,2476.537094,2476.537094,2476.537094,2476.537093,2476.537093,
   ** Warning ** SimHVAC: Maximum iterations (20) exceeded for all HVAC loops, at ANNUAL, 04/08 10:11 - 10:15
   **   ~~~   ** The solution for one or more of the Air Loop HVAC systems did not appear to converge
   **   ~~~   ** Air System Named = CENTRAL SYSTEM did not converge for mass flow rate
   **   ~~~   ** Check values should be zero. Most Recent values listed first.
   **   ~~~   ** Demand-to-Supply interface mass flow rate check value iteration history trace: 6.114409E-002,6.114409E-002,6.114409E-002,6.114409E-002,6.114409E-002,6.114409E-002,6.114409E-002,6.114409E-002,6.114409E-002,6.114409E-002,
   **   ~~~   ** Supply-to-demand interface deck 1 mass flow rate check value iteration history trace: 6.114409E-002,6.114409E-002,6.114409E-002,6.114409E-002,6.114409E-002,6.114409E-002,6.114409E-002,6.114409E-002,6.114409E-002,6.114409E-002,
   **   ~~~   ** Air System Named = CENTRAL SYSTEM did not converge for energy
   **   ~~~   ** Check values should be zero. Most Recent values listed first.
   **   ~~~   ** Demand-to-Supply interface energy check value iteration history trace: 1208.637940,1208.637940,1208.637940,1208.637940,1208.637940,1208.637940,1208.637939,1208.637939,1208.637939,1208.637939,
   **   ~~~   ** Supply-to-demand interface deck 1 energy check value iteration history trace: 2265.957249,2265.957249,2265.957249,2265.957249,2265.957249,2265.957248,2265.957248,2265.957248,2265.957248,2265.957248,
   ** Warning ** SimHVAC: Maximum iterations (20) exceeded for all HVAC loops, at ANNUAL, 04/15 08:49 - 08:52
   **   ~~~   ** The solution for one or more of the Air Loop HVAC systems did not appear to converge
   **   ~~~   ** Air System Named = CENTRAL SYSTEM did not converge for mass flow rate
   **   ~~~   ** Check values should be zero. Most Recent values listed first.
   **   ~~~   ** Demand-to-Supply interface mass flow rate check value iteration history trace: 6.877127E-002,6.877127E-002,6.877127E-002,6.877127E-002,6.877127E-002,6.877127E-002,6.877127E-002,6.877127E-002,6.877127E-002,6.877127E-002,
   **   ~~~   ** Supply-to-demand interface deck 1 mass flow rate check value iteration history trace: 6.877127E-002,6.877127E-002,6.877127E-002,6.877127E-002,6.877127E-002,6.877127E-002,6.877127E-002,6.877127E-002,6.877127E-002,6.877127E-002,
   **   ~~~   ** Air System Named = CENTRAL SYSTEM did not converge for energy
   **   ~~~   ** Check values should be zero. Most Recent values listed first.
   **   ~~~   ** Demand-to-Supply interface energy check value iteration history trace: 1362.777812,1362.777812,1362.777811,1362.777811,1362.777811,1362.777811,1362.777811,1362.777811,1362.777811,1362.777811,
   **   ~~~   ** Supply-to-demand interface deck 1 energy check value iteration history trace: 2555.303752,2555.303752,2555.303752,2555.303752,2555.303752,2555.303752,2555.303752,2555.303752,2555.303752,2555.303751,
   ** Warning ** SimHVAC: Maximum iterations (20) exceeded for all HVAC loops, at ANNUAL, 04/29 11:00 - 11:08
   **   ~~~   ** The solution for one or more of the Air Loop HVAC systems did not appear to converge
   **   ~~~   ** Air System Named = CENTRAL SYSTEM did not converge for mass flow rate
   **   ~~~   ** Check values should be zero. Most Recent values listed first.
   **   ~~~   ** Demand-to-Supply interface mass flow rate check value iteration history trace: 5.520260E-002,5.520260E-002,5.520260E-002,5.520260E-002,5.520260E-002,5.520260E-002,5.520260E-002,5.520260E-002,5.520260E-002,5.520260E-002,
   **   ~~~   ** Supply-to-demand interface deck 1 mass flow rate check value iteration history trace: 5.520260E-002,5.520260E-002,5.520260E-002,5.520260E-002,5.520260E-002,5.520260E-002,5.520260E-002,5.520260E-002,5.520260E-002,5.520260E-002,
   **   ~~~   ** Air System Named = CENTRAL SYSTEM did not converge for energy
   **   ~~~   ** Check values should be zero. Most Recent values listed first.
   **   ~~~   ** Demand-to-Supply interface energy check value iteration history trace: 1089.956693,1089.956693,1089.956693,1089.956693,1089.956693,1089.956693,1089.956693,1089.956693,1089.956693,1089.956693,
   **   ~~~   ** Supply-to-demand interface deck 1 energy check value iteration history trace: 2033.763507,2033.763507,2033.763507,2033.763507,2033.763507,2033.763507,2033.763507,2033.763507,2033.763507,2033.763507,
   ** Warning ** SimHVAC: Maximum iterations (20) exceeded for all HVAC loops, at ANNUAL, 04/30 19:53 - 20:00
   **   ~~~   ** The solution for one or more of the Air Loop HVAC systems did not appear to converge
   **   ~~~   ** Air System Named = CENTRAL SYSTEM did not converge for mass flow rate
   **   ~~~   ** Check values should be zero. Most Recent values listed first.
   **   ~~~   ** Demand-to-Supply interface mass flow rate check value iteration history trace: 0.100873,0.100873,0.100873,0.100873,0.100873,0.100873,0.100873,0.100873,0.100873,0.100873,
   **   ~~~   ** Supply-to-demand interface deck 1 mass flow rate check value iteration history trace: 0.100873,0.100873,0.100873,0.100873,0.100873,0.100873,0.100873,0.100873,0.100873,0.100873,
   **   ~~~   ** Air System Named = CENTRAL SYSTEM did not converge for energy
   **   ~~~   ** Check values should be zero. Most Recent values listed first.
   **   ~~~   ** Demand-to-Supply interface energy check value iteration history trace: 1991.930477,1991.930477,1991.930477,1991.930477,1991.930477,1991.930477,1991.930477,1991.930476,1991.930476,1991.930476,
   **   ~~~   ** Supply-to-demand interface deck 1 energy check value iteration history trace: 3163.568744,3163.568743,3163.568743,3163.568743,3163.568743,3163.568743,3163.568743,3163.568742,3163.568742,3163.568742,
   ** Warning ** SimHVAC: Maximum iterations (20) exceeded for all HVAC loops, at ANNUAL, 06/16 07:35 - 07:38
   **   ~~~   ** The solution for one or more of the Air Loop HVAC systems did not appear to converge
   **   ~~~   ** Air System Named = CENTRAL SYSTEM did not converge for mass flow rate
   **   ~~~   ** Check values should be zero. Most Recent values listed first.
   **   ~~~   ** Demand-to-Supply interface mass flow rate check value iteration history trace: 5.849855E-002,5.849855E-002,5.849855E-002,5.849855E-002,5.849855E-002,5.849855E-002,5.849855E-002,5.849855E-002,5.849855E-002,5.849855E-002,
   **   ~~~   ** Supply-to-demand interface deck 1 mass flow rate check value iteration history trace: 5.849855E-002,5.849855E-002,5.849855E-002,5.849855E-002,5.849855E-002,5.849855E-002,5.849855E-002,5.849855E-002,5.849855E-002,5.849855E-002,
   **   ~~~   ** Air System Named = CENTRAL SYSTEM did not converge for energy
   **   ~~~   ** Check values should be zero. Most Recent values listed first.
   **   ~~~   ** Demand-to-Supply interface energy check value iteration history trace: 1376.181835,1376.181835,1376.181835,1376.181835,1376.181835,1376.181835,1376.181836,1376.181836,1376.181836,1376.181836,
   **   ~~~   ** Supply-to-demand interface deck 1 energy check value iteration history trace: 528.162456,528.162456,528.162456,528.162456,528.162456,528.162456,528.162456,528.162456,528.162456,528.162456,
   ** Warning ** SimHVAC: Maximum iterations (20) exceeded for all HVAC loops, at ANNUAL, 06/26 07:17 - 07:19
   **   ~~~   ** The solution for one or more of the Air Loop HVAC systems did not appear to converge
   **   ~~~   ** Air System Named = CENTRAL SYSTEM did not converge for mass flow rate
   **   ~~~   ** Check values should be zero. Most Recent values listed first.
   **   ~~~   ** Demand-to-Supply interface mass flow rate check value iteration history trace: 0.290774,0.290774,0.290774,0.290774,0.290774,0.290774,0.290774,0.290774,0.290774,0.290774,
   **   ~~~   ** Supply-to-demand interface deck 1 mass flow rate check value iteration history trace: 0.290774,0.290774,0.290774,0.290774,0.290774,0.290774,0.290774,0.290774,0.290774,0.290774,
   **   ~~~   ** Air System Named = CENTRAL SYSTEM did not converge for energy
   **   ~~~   ** Check values should be zero. Most Recent values listed first.
   **   ~~~   ** Demand-to-Supply interface energy check value iteration history trace: 6960.104281,6960.104282,6960.104283,6960.104284,6960.104285,6960.104287,6960.104288,6960.104289,6960.104290,6960.104291,
   **   ~~~   ** Supply-to-demand interface deck 1 energy check value iteration history trace: 2642.454746,2642.454746,2642.454747,2642.454747,2642.454748,2642.454748,2642.454749,2642.454749,2642.454749,2642.454750,
   ** Warning ** SimHVAC: Maximum iterations (20) exceeded for all HVAC loops, at ANNUAL, 09/16 20:10 - 20:15
   **   ~~~   ** The solution for one or more of the Air Loop HVAC systems did not appear to converge
   **   ~~~   ** Air System Named = CENTRAL SYSTEM did not converge for mass flow rate
   **   ~~~   ** Check values should be zero. Most Recent values listed first.
   **   ~~~   ** Demand-to-Supply interface mass flow rate check value iteration history trace: 0.129194,0.129194,0.129194,0.129194,0.129194,0.129194,0.129194,0.129194,0.129194,0.129194,
   **   ~~~   ** Supply-to-demand interface deck 1 mass flow rate check value iteration history trace: 0.129194,0.129194,0.129194,0.129194,0.129194,0.129194,0.129194,0.129194,0.129194,0.129194,
   **   ~~~   ** Air System Named = CENTRAL SYSTEM did not converge for energy
   **   ~~~   ** Check values should be zero. Most Recent values listed first.
   **   ~~~   ** Demand-to-Supply interface energy check value iteration history trace: 3077.886951,3077.886951,3077.886951,3077.886952,3077.886952,3077.886952,3077.886952,3077.886952,3077.886952,3077.886952,
   **   ~~~   ** Supply-to-demand interface deck 1 energy check value iteration history trace: 999.492716,999.492716,999.492716,999.492716,999.492716,999.492716,999.492716,999.492716,999.492716,999.492716,
   ** Warning ** SimHVAC: Maximum iterations (20) exceeded for all HVAC loops, at ANNUAL, 09/18 06:45 - 06:50
   **   ~~~   ** The solution for one or more of the Air Loop HVAC systems did not appear to converge
   **   ~~~   ** Air System Named = CENTRAL SYSTEM did not converge for mass flow rate
   **   ~~~   ** Check values should be zero. Most Recent values listed first.
   **   ~~~   ** Demand-to-Supply interface mass flow rate check value iteration history trace: 6.097911E-002,6.097911E-002,6.097911E-002,6.097911E-002,6.097911E-002,6.097911E-002,6.097911E-002,6.097911E-002,6.097911E-002,6.097911E-002,
   **   ~~~   ** Supply-to-demand interface deck 1 mass flow rate check value iteration history trace: 6.097911E-002,6.097911E-002,6.097911E-002,6.097911E-002,6.097911E-002,6.097911E-002,6.097911E-002,6.097911E-002,6.097911E-002,6.097911E-002,
   **   ~~~   ** Air System Named = CENTRAL SYSTEM did not converge for energy
   **   ~~~   ** Check values should be zero. Most Recent values listed first.
   **   ~~~   ** Demand-to-Supply interface energy check value iteration history trace: 1198.327815,1198.327815,1198.327815,1198.327815,1198.327815,1198.327815,1198.327815,1198.327815,1198.327815,1198.327815,
   **   ~~~   ** Supply-to-demand interface deck 1 energy check value iteration history trace: 2292.803993,2292.803993,2292.803993,2292.803992,2292.803992,2292.803992,2292.803992,2292.803992,2292.803992,2292.803992,
   ** Warning ** SimHVAC: Maximum iterations (20) exceeded for all HVAC loops, at ANNUAL, 09/24 08:24 - 08:26
   **   ~~~   ** The solution for one or more of the Air Loop HVAC systems did not appear to converge
   **   ~~~   ** Air System Named = CENTRAL SYSTEM did not converge for mass flow rate
   **   ~~~   ** Check values should be zero. Most Recent values listed first.
   **   ~~~   ** Demand-to-Supply interface mass flow rate check value iteration history trace: 0.260459,0.260459,0.260459,0.260459,0.260459,0.260459,0.260459,0.260459,0.260459,0.260459,
   **   ~~~   ** Supply-to-demand interface deck 1 mass flow rate check value iteration history trace: 0.260459,0.260459,0.260459,0.260459,0.260459,0.260459,0.260459,0.260459,0.260459,0.260459,
   **   ~~~   ** Air System Named = CENTRAL SYSTEM did not converge for energy
   **   ~~~   ** Check values should be zero. Most Recent values listed first.
   **   ~~~   ** Demand-to-Supply interface energy check value iteration history trace: 6195.415230,6195.415231,6195.415231,6195.415231,6195.415232,6195.415232,6195.415232,6195.415232,6195.415233,6195.415233,
   **   ~~~   ** Supply-to-demand interface deck 1 energy check value iteration history trace: 3292.690068,3292.690068,3292.690068,3292.690068,3292.690068,3292.690068,3292.690069,3292.690069,3292.690069,3292.690069,
   ** Warning ** SimHVAC: Maximum iterations (20) exceeded for all HVAC loops, at ANNUAL, 09/26 07:54 - 07:57
   **   ~~~   ** The solution for one or more of the Air Loop HVAC systems did not appear to converge
   **   ~~~   ** Air System Named = CENTRAL SYSTEM did not converge for mass flow rate
   **   ~~~   ** Check values should be zero. Most Recent values listed first.
   **   ~~~   ** Demand-to-Supply interface mass flow rate check value iteration history trace: 6.392716E-002,6.392716E-002,6.392716E-002,6.392716E-002,6.392716E-002,6.392716E-002,6.392716E-002,6.392716E-002,6.392716E-002,6.392716E-002,
   **   ~~~   ** Supply-to-demand interface deck 1 mass flow rate check value iteration history trace: 6.392716E-002,6.392716E-002,6.392716E-002,6.392716E-002,6.392716E-002,6.392716E-002,6.392716E-002,6.392716E-002,6.392716E-002,6.392716E-002,
   **   ~~~   ** Air System Named = CENTRAL SYSTEM did not converge for energy
   **   ~~~   ** Check values should be zero. Most Recent values listed first.
   **   ~~~   ** Demand-to-Supply interface energy check value iteration history trace: 1264.451196,1264.451196,1264.451196,1264.451196,1264.451196,1264.451196,1264.451196,1264.451196,1264.451196,1264.451196,
   **   ~~~   ** Supply-to-demand interface deck 1 energy check value iteration history trace: 2413.192233,2413.192233,2413.192233,2413.192233,2413.192232,2413.192232,2413.192232,2413.192232,2413.192232,2413.192232,
   ************* Simulation Error Summary *************
   ** Warning ** The following Report Variables were requested but not generated -- check.rdd file
   **   ~~~   ** Either the IDF did not contain these elements, the variable name is misspelled,
   **   ~~~   ** or the requested variable is an advanced output which requires Output : Diagnostics, DisplayAdvancedReportVariables;
   ************* Key=*, VarName=BASEBOARD TOTAL HEATING ENERGY, Frequency=
   ************* Key=*, VarName=WATER HEATER NATURALGAS ENERGY, Frequency=
   ************* Key=*, VarName=COOLING COIL TOTAL HEATING ENERGY, Frequency=
   ************* There are 34 unused schedules in input.
   ************* There are 388 unused week schedules in input.
   ************* There are 396 unused day schedules in input.
   ************* Use Output:Diagnostics,DisplayUnusedSchedules; to see them.
   *************
   ************* ===== Recurring Error Summary =====
   ************* The following recurring error messages occurred.
   *************
   *************  ** Warning ** "TOTAL HOT WATER LOAD" - Target water temperature should be less than or equal to the hot water temperature error continues...
   *************  **   ~~~   **   This error occurred 105789 total times;
   *************  **   ~~~   **   during Warmup 0 times;
   *************  **   ~~~   **   during Sizing 0 times.
   *************  **   ~~~   **   Max=11.068072  Min=3.066719E-004
   *************
   *************  ** Warning ** SimHVAC: Exceeding Maximum iterations for all HVAC loops, during ANNUAL continues
   *************  **   ~~~   **   This error occurred 9 total times;
   *************  **   ~~~   **   during Warmup 0 times;
   *************  **   ~~~   **   during Sizing 0 times.
   *************
   *************
   ************* ===== Final Error Summary =====
   ************* The following error categories occurred.  Consider correcting or noting.
   ************* Nominally Unused Constructions
   ************* ..The nominally unused constructions warning is provided to alert you to potential conditions that can cause
   ************* ..extra time during simulation. Each construction is calculated by the algorithm indicated in the HeatBalanceAlgorithm
   ************* ..object. You may remove the constructions indicated (when you use the DisplayExtraWarnings option).
   *************
   ************* EnergyPlus Warmup Error Summary. During Warmup: 1 Warning; 0 Severe Errors.
   ************* EnergyPlus Sizing Error Summary. During Sizing: 4 Warning; 0 Severe Errors.
   ************* EnergyPlus Completed Successfully-- 105830 Warning; 0 Severe Errors; Elapsed Time=00hr 05min  1.84sec
