Program Version,EnergyPlus, Version 22.2.0-c249759bad, YMD=2023.09.01 19:08,
   ************* Beginning Zone Sizing Calculations
   ** Warning ** ProcessScheduleInput: Schedule:Constant="ALWAYS ON DISCRETE", Schedule Type Limits Name="ONOFF" not found -- will not be validated
   ** Warning ** Foundation:Kiva="KIVA FOUNDATION", no Interior Horizontal Insulation Material Name defined
   **   ~~~   ** Interior Horizontal Insulation Depth will not be used.
   ** Warning ** CheckUsedConstructions: There are 15 nominally unused constructions in input.
   **   ~~~   ** Each Unused construction is shown.
   ************* Construction=INTERIOR FLOOR
   ************* Construction=INTERIOR WINDOW
   ************* Construction=EXTERIOR DOOR
   ************* Construction=INTERIOR DOOR
   ************* Construction=GABLE CONSTRUCTION
   ************* Construction=CRAWL_FLOOR
   ************* Construction=INSULATED PIPE
   ************* Construction=PLAIN PIPE
   ************* Construction=TDD PIPE
   ************* Construction=TDD DOME
   ************* Construction=TDD DIFFUSER
   ************* Construction=CRAWL WALL
   ************* Construction=CEILING-FLOOR-LAYER
   ************* Construction=SLAB CONSTRUCTION W FULL R10 INSULATION
   ************* Construction=SLAB CONSTRUCTION W FULL R5 INSULATION
   ** Warning ** GetDXCoils: Coil:Heating:DX:SingleSpeed="DX_HEATING_COIL" curve values
   **   ~~~   ** ... Defrost Energy Input Ratio Function of Temperature Curve Name = DEFROSTEIR output is not equal to 1.0 (+ or - 10%) at rated conditions.
   **   ~~~   ** ... Curve output at rated conditions = 0.152
   ************* Beginning System Sizing Calculations
   ************* Beginning Plant Sizing Calculations
   ** Warning ** SizeDXCoil Coil:Cooling:DX:SingleSpeed DX_COOLING_COIL
   **   ~~~   ** ...Gross Rated Total Cooling Capacity [W] will be limited by the maximum rated volume flow per rated total capacity ratio.
   **   ~~~   ** ...DX coil volume flow rate ( m3/s ) = 0.462787
   **   ~~~   ** ...Requested capacity ( W ) = 7582.349
   **   ~~~   ** ...Requested flow/capacity ratio ( m3/s/W ) = 6.103E-005
   **   ~~~   ** ...Maximum flow/capacity ratio ( m3/s/W ) = 6.041E-005
   **   ~~~   ** ...Adjusted capacity ( W ) = 7660.781
   ** Warning ** SizeDXCoil Coil:Heating:DX:SingleSpeed DX_HEATING_COIL
   **   ~~~   ** ...Gross Rated Heating Capacity [W] will be limited by the maximum rated volume flow per rated total capacity ratio.
   **   ~~~   ** ...DX coil volume flow rate ( m3/s ) = 0.462787
   **   ~~~   ** ...Requested capacity ( W ) = 7660.781
   **   ~~~   ** ...Requested flow/capacity ratio ( m3/s/W ) = 6.041E-005
   **   ~~~   ** ...Maximum flow/capacity ratio ( m3/s/W ) = 6.041E-005
   **   ~~~   ** ...Adjusted capacity ( W ) = 7660.781
   ** Warning ** Coil:WaterHeating:AirToWaterHeatPump:Wrapped "HEAT PUMP WATER HEATER EVAPORATOR": Rated air volume flow rate per watt of rated total water heating capacity is out of range
   **   ~~~   ** Min Rated Vol Flow Per Watt=[4.027E-005], Rated Vol Flow Per Watt=[1.510E-004], Max Rated Vol Flow Per Watt=[8.056E-005]. See Input-Output Reference Manual for valid range.
   ************* SizeFan: : Potential issue with equipment sizing for Fan:OnOff HEAT PUMP WATER HEATER FAN
   **   ~~~   ** User-Specified Maximum Flow Rate [m3/s] = 0.22653
   **   ~~~   ** differs from Design Size Maximum Flow Rate [m3/s] = 7.55250E-002
   **   ~~~   ** This may, or may not, indicate mismatched component sizes.
   **   ~~~   ** Verify that the value entered is intended and is consistent with other components.
   ** Warning ** Water heater = WATER HEATER TANK:  Recovery Efficiency and Energy Factor could not be calculated during the test for standard ratings
   **   ~~~   ** Setpoint was never recovered and/or heater never turned on
   ** Warning ** Check input. Pump nominal power or motor efficiency is set to 0, for pump=MAINS PRESSURE
   ** Warning ** Output:Meter: invalid Key Name="ELECTRIC_RANGE:INTERIOREQUIPMENT:ELECTRICITY" - not found.
   ** Warning ** Output:Meter: invalid Key Name="ELECTRIC_DRYER:INTERIOREQUIPMENT:ELECTRICITY" - not found.
   ** Warning ** Output:Meter: invalid Key Name="HEATRECOVERY:ELECTRICITY" - not found.
   ** Warning ** Output:Meter: invalid Key Name="HEATING:NATURALGAS" - not found.
   ** Warning ** Output:Meter: invalid Key Name="WATERSYSTEMS:NATURALGAS" - not found.
   ** Warning ** Output:Meter: invalid Key Name="PROPANE:FACILITY" - not found.
   ** Warning ** Output:Meter: invalid Key Name="HEATING:PROPANE" - not found.
   ************* Testing Individual Branch Integrity
   ************* All Branches passed integrity testing
   ************* Testing Individual Supply Air Path Integrity
   ************* All Supply Air Paths passed integrity testing
   ************* Testing Individual Return Air Path Integrity
   ************* All Return Air Paths passed integrity testing
   ************* No node connection errors were found.
   ************* Beginning Simulation
   ** Warning ** AirflowNetwork::Solver::validate_distribution: Heat pump water heater is simulated along with an AirflowNetwork but is not included in the AirflowNetwork.
   ** Warning ** CalcEquipmentFlowRates: "TOTAL HOT WATER LOAD" - Target water temperature is greater than the hot water temperature by (0.84 C)
   **   ~~~   **  Environment=EXTREME_WINTER, at Simulation time=12/22 06:45 - 07:00
   **   ~~~   ** ...target water temperature     = 53.33 C
   **   ~~~   ** ...hot water temperature        = 52.49 C
   **   ~~~   ** ...Target water temperature should be less than or equal to the hot water temperature. Verify temperature setpoints and schedules.
   ** Warning ** SimHVAC: Maximum iterations (20) exceeded for all HVAC loops, at EXTREME_WINTER, 12/27 12:15 - 12:30
   **   ~~~   ** The solution for one or more of the Air Loop HVAC systems did not appear to converge
   **   ~~~   ** Air System Named = CENTRAL SYSTEM did not converge for mass flow rate
   **   ~~~   ** Check values should be zero. Most Recent values listed first.
   **   ~~~   ** Demand-to-Supply interface mass flow rate check value iteration history trace: 5.576624E-002,5.576624E-002,5.576624E-002,5.576624E-002,5.576624E-002,5.576624E-002,5.576624E-002,5.576624E-002,5.576624E-002,5.576624E-002,
   **   ~~~   ** Supply-to-demand interface deck 1 mass flow rate check value iteration history trace: 5.576624E-002,5.576624E-002,5.576624E-002,5.576624E-002,5.576624E-002,5.576624E-002,5.576624E-002,5.576624E-002,5.576624E-002,5.576624E-002,
   **   ~~~   ** Air System Named = CENTRAL SYSTEM did not converge for energy
   **   ~~~   ** Check values should be zero. Most Recent values listed first.
   **   ~~~   ** Demand-to-Supply interface energy check value iteration history trace: 1094.490718,1094.490718,1094.490718,1094.490718,1094.490718,1094.490718,1094.490718,1094.490718,1094.490718,1094.490718,
   **   ~~~   ** Supply-to-demand interface deck 1 energy check value iteration history trace: 1966.214362,1966.214362,1966.214362,1966.214362,1966.214362,1966.214362,1966.214362,1966.214362,1966.214362,1966.214362,
   ** Warning ** SimHVAC: Maximum iterations (20) exceeded for all HVAC loops, at EXTREME_WINTER, 12/27 12:15 - 12:22
   **   ~~~   ** The solution for one or more of the Air Loop HVAC systems did not appear to converge
   **   ~~~   ** Air System Named = CENTRAL SYSTEM did not converge for mass flow rate
   **   ~~~   ** Check values should be zero. Most Recent values listed first.
   **   ~~~   ** Demand-to-Supply interface mass flow rate check value iteration history trace: 5.612982E-002,5.612982E-002,5.612982E-002,5.612982E-002,5.612982E-002,5.612982E-002,5.612982E-002,5.612982E-002,5.612982E-002,5.612982E-002,
   **   ~~~   ** Supply-to-demand interface deck 1 mass flow rate check value iteration history trace: 5.612982E-002,5.612982E-002,5.612982E-002,5.612982E-002,5.612982E-002,5.612982E-002,5.612982E-002,5.612982E-002,5.612982E-002,5.612982E-002,
   **   ~~~   ** Air System Named = CENTRAL SYSTEM did not converge for energy
   **   ~~~   ** Check values should be zero. Most Recent values listed first.
   **   ~~~   ** Demand-to-Supply interface energy check value iteration history trace: 1101.626498,1101.626498,1101.626498,1101.626498,1101.626498,1101.626498,1101.626498,1101.626498,1101.626498,1101.626498,
   **   ~~~   ** Supply-to-demand interface deck 1 energy check value iteration history trace: 1979.032173,1979.032173,1979.032173,1979.032172,1979.032172,1979.032172,1979.032172,1979.032172,1979.032172,1979.032172,
   ** Warning ** SimHVAC: Maximum iterations (20) exceeded for all HVAC loops, at ANNUAL, 01/05 10:45 - 11:00
   **   ~~~   ** The solution for one or more of the Air Loop HVAC systems did not appear to converge
   **   ~~~   ** Air System Named = CENTRAL SYSTEM did not converge for mass flow rate
   **   ~~~   ** Check values should be zero. Most Recent values listed first.
   **   ~~~   ** Demand-to-Supply interface mass flow rate check value iteration history trace: 7.663929E-002,7.663929E-002,7.663929E-002,7.663929E-002,7.663929E-002,7.663929E-002,7.663929E-002,7.663929E-002,7.663929E-002,7.663929E-002,
   **   ~~~   ** Supply-to-demand interface deck 1 mass flow rate check value iteration history trace: 7.663929E-002,7.663929E-002,7.663929E-002,7.663929E-002,7.663929E-002,7.663929E-002,7.663929E-002,7.663929E-002,7.663929E-002,7.663929E-002,
   **   ~~~   ** Air System Named = CENTRAL SYSTEM did not converge for energy
   **   ~~~   ** Check values should be zero. Most Recent values listed first.
   **   ~~~   ** Demand-to-Supply interface energy check value iteration history trace: 1518.763291,1518.763291,1518.763291,1518.763291,1518.763291,1518.763290,1518.763290,1518.763290,1518.763290,1518.763290,
   **   ~~~   ** Supply-to-demand interface deck 1 energy check value iteration history trace: 2591.314083,2591.314083,2591.314083,2591.314083,2591.314083,2591.314083,2591.314083,2591.314083,2591.314082,2591.314082,
   ** Warning ** SimHVAC: Maximum iterations (20) exceeded for all HVAC loops, at ANNUAL, 01/09 13:08 - 13:15
   **   ~~~   ** The solution for one or more of the Air Loop HVAC systems did not appear to converge
   **   ~~~   ** Air System Named = CENTRAL SYSTEM did not converge for mass flow rate
   **   ~~~   ** Check values should be zero. Most Recent values listed first.
   **   ~~~   ** Demand-to-Supply interface mass flow rate check value iteration history trace: 5.289979E-002,5.289979E-002,5.289979E-002,5.289979E-002,5.289979E-002,5.289979E-002,5.289979E-002,5.289979E-002,5.289979E-002,5.289979E-002,
   **   ~~~   ** Supply-to-demand interface deck 1 mass flow rate check value iteration history trace: 5.289979E-002,5.289979E-002,5.289979E-002,5.289979E-002,5.289979E-002,5.289979E-002,5.289979E-002,5.289979E-002,5.289979E-002,5.289979E-002,
   **   ~~~   ** Air System Named = CENTRAL SYSTEM did not converge for energy
   **   ~~~   ** Check values should be zero. Most Recent values listed first.
   **   ~~~   ** Demand-to-Supply interface energy check value iteration history trace: 1043.406371,1043.406371,1043.406371,1043.406371,1043.406371,1043.406371,1043.406371,1043.406371,1043.406371,1043.406371,
   **   ~~~   ** Supply-to-demand interface deck 1 energy check value iteration history trace: 1855.629180,1855.629180,1855.629180,1855.629180,1855.629180,1855.629180,1855.629180,1855.629180,1855.629179,1855.629179,
   ** Warning ** SimHVAC: Maximum iterations (20) exceeded for all HVAC loops, at ANNUAL, 01/14 12:30 - 12:45
   **   ~~~   ** The solution for one or more of the Air Loop HVAC systems did not appear to converge
   **   ~~~   ** Air System Named = CENTRAL SYSTEM did not converge for mass flow rate
   **   ~~~   ** Check values should be zero. Most Recent values listed first.
   **   ~~~   ** Demand-to-Supply interface mass flow rate check value iteration history trace: 6.232809E-002,6.232809E-002,6.232809E-002,6.232809E-002,6.232809E-002,6.232809E-002,6.232809E-002,6.232809E-002,6.232809E-002,6.232809E-002,
   **   ~~~   ** Supply-to-demand interface deck 1 mass flow rate check value iteration history trace: 6.232809E-002,6.232809E-002,6.232809E-002,6.232809E-002,6.232809E-002,6.232809E-002,6.232809E-002,6.232809E-002,6.232809E-002,6.232809E-002,
   **   ~~~   ** Air System Named = CENTRAL SYSTEM did not converge for energy
   **   ~~~   ** Check values should be zero. Most Recent values listed first.
   **   ~~~   ** Demand-to-Supply interface energy check value iteration history trace: 1235.138833,1235.138833,1235.138833,1235.138833,1235.138833,1235.138833,1235.138833,1235.138833,1235.138833,1235.138833,
   **   ~~~   ** Supply-to-demand interface deck 1 energy check value iteration history trace: 2123.513119,2123.513119,2123.513118,2123.513118,2123.513118,2123.513118,2123.513118,2123.513118,2123.513118,2123.513118,
   ** Warning ** SimHVAC: Maximum iterations (20) exceeded for all HVAC loops, at ANNUAL, 01/19 11:00 - 11:05
   **   ~~~   ** The solution for one or more of the Air Loop HVAC systems did not appear to converge
   **   ~~~   ** Air System Named = CENTRAL SYSTEM did not converge for mass flow rate
   **   ~~~   ** Check values should be zero. Most Recent values listed first.
   **   ~~~   ** Demand-to-Supply interface mass flow rate check value iteration history trace: 6.135536E-002,6.135536E-002,6.135536E-002,6.135536E-002,6.135536E-002,6.135536E-002,6.135536E-002,6.135536E-002,6.135536E-002,6.135536E-002,
   **   ~~~   ** Supply-to-demand interface deck 1 mass flow rate check value iteration history trace: 6.135536E-002,6.135536E-002,6.135536E-002,6.135536E-002,6.135536E-002,6.135536E-002,6.135536E-002,6.135536E-002,6.135536E-002,6.135536E-002,
   **   ~~~   ** Air System Named = CENTRAL SYSTEM did not converge for energy
   **   ~~~   ** Check values should be zero. Most Recent values listed first.
   **   ~~~   ** Demand-to-Supply interface energy check value iteration history trace: 1215.864730,1215.864730,1215.864730,1215.864730,1215.864730,1215.864730,1215.864730,1215.864730,1215.864730,1215.864730,
   **   ~~~   ** Supply-to-demand interface deck 1 energy check value iteration history trace: 2153.837576,2153.837576,2153.837576,2153.837575,2153.837575,2153.837575,2153.837575,2153.837575,2153.837575,2153.837575,
   ** Warning ** SimHVAC: Maximum iterations (20) exceeded for all HVAC loops, at ANNUAL, 01/22 13:15 - 13:30
   **   ~~~   ** The solution for one or more of the Air Loop HVAC systems did not appear to converge
   **   ~~~   ** Air System Named = CENTRAL SYSTEM did not converge for mass flow rate
   **   ~~~   ** Check values should be zero. Most Recent values listed first.
   **   ~~~   ** Demand-to-Supply interface mass flow rate check value iteration history trace: 6.404316E-002,6.404316E-002,6.404316E-002,6.404316E-002,6.404316E-002,6.404316E-002,6.404316E-002,6.404316E-002,6.404316E-002,6.404316E-002,
   **   ~~~   ** Supply-to-demand interface deck 1 mass flow rate check value iteration history trace: 6.404316E-002,6.404316E-002,6.404316E-002,6.404316E-002,6.404316E-002,6.404316E-002,6.404316E-002,6.404316E-002,6.404316E-002,6.404316E-002,
   **   ~~~   ** Air System Named = CENTRAL SYSTEM did not converge for energy
   **   ~~~   ** Check values should be zero. Most Recent values listed first.
   **   ~~~   ** Demand-to-Supply interface energy check value iteration history trace: 1269.104020,1269.104020,1269.104019,1269.104019,1269.104019,1269.104019,1269.104019,1269.104019,1269.104019,1269.104019,
   **   ~~~   ** Supply-to-demand interface deck 1 energy check value iteration history trace: 2178.240345,2178.240345,2178.240345,2178.240345,2178.240345,2178.240345,2178.240345,2178.240345,2178.240345,2178.240344,
   ** Warning ** SimHVAC: Maximum iterations (20) exceeded for all HVAC loops, at ANNUAL, 02/22 09:00 - 09:15
   **   ~~~   ** The solution for one or more of the Air Loop HVAC systems did not appear to converge
   **   ~~~   ** Air System Named = CENTRAL SYSTEM did not converge for mass flow rate
   **   ~~~   ** Check values should be zero. Most Recent values listed first.
   **   ~~~   ** Demand-to-Supply interface mass flow rate check value iteration history trace: 6.724031E-002,6.724031E-002,6.724031E-002,6.724031E-002,6.724031E-002,6.724031E-002,6.724031E-002,6.724031E-002,6.724031E-002,6.724031E-002,
   **   ~~~   ** Supply-to-demand interface deck 1 mass flow rate check value iteration history trace: 6.724031E-002,6.724031E-002,6.724031E-002,6.724031E-002,6.724031E-002,6.724031E-002,6.724031E-002,6.724031E-002,6.724031E-002,6.724031E-002,
   **   ~~~   ** Air System Named = CENTRAL SYSTEM did not converge for energy
   **   ~~~   ** Check values should be zero. Most Recent values listed first.
   **   ~~~   ** Demand-to-Supply interface energy check value iteration history trace: 1332.450303,1332.450303,1332.450303,1332.450303,1332.450303,1332.450303,1332.450303,1332.450303,1332.450303,1332.450303,
   **   ~~~   ** Supply-to-demand interface deck 1 energy check value iteration history trace: 2322.550050,2322.550050,2322.550050,2322.550050,2322.550050,2322.550050,2322.550050,2322.550050,2322.550050,2322.550050,
   ** Warning ** SimHVAC: Maximum iterations (20) exceeded for all HVAC loops, at ANNUAL, 03/17 07:57 - 08:00
   **   ~~~   ** The solution for one or more of the Air Loop HVAC systems did not appear to converge
   **   ~~~   ** Air System Named = CENTRAL SYSTEM did not converge for mass flow rate
   **   ~~~   ** Check values should be zero. Most Recent values listed first.
   **   ~~~   ** Demand-to-Supply interface mass flow rate check value iteration history trace: 6.569407E-002,6.569407E-002,6.569407E-002,6.569407E-002,6.569407E-002,6.569407E-002,6.569407E-002,6.569407E-002,6.569407E-002,6.569407E-002,
   **   ~~~   ** Supply-to-demand interface deck 1 mass flow rate check value iteration history trace: 6.569407E-002,6.569407E-002,6.569407E-002,6.569407E-002,6.569407E-002,6.569407E-002,6.569407E-002,6.569407E-002,6.569407E-002,6.569407E-002,
   **   ~~~   ** Air System Named = CENTRAL SYSTEM did not converge for energy
   **   ~~~   ** Check values should be zero. Most Recent values listed first.
   **   ~~~   ** Demand-to-Supply interface energy check value iteration history trace: 1293.622455,1293.622455,1293.622454,1293.622454,1293.622454,1293.622454,1293.622454,1293.622454,1293.622454,1293.622454,
   **   ~~~   ** Supply-to-demand interface deck 1 energy check value iteration history trace: 2274.934656,2274.934656,2274.934656,2274.934656,2274.934656,2274.934655,2274.934655,2274.934655,2274.934655,2274.934655,
   ** Warning ** SimHVAC: Maximum iterations (20) exceeded for all HVAC loops, at ANNUAL, 04/22 06:15 - 06:30
   **   ~~~   ** The solution for one or more of the Air Loop HVAC systems did not appear to converge
   **   ~~~   ** Air System Named = CENTRAL SYSTEM did not converge for mass flow rate
   **   ~~~   ** Check values should be zero. Most Recent values listed first.
   **   ~~~   ** Demand-to-Supply interface mass flow rate check value iteration history trace: 0.125275,0.125275,0.125275,0.125275,0.125275,0.125275,0.125275,0.125275,0.125275,0.125275,
   **   ~~~   ** Supply-to-demand interface deck 1 mass flow rate check value iteration history trace: 0.125275,0.125275,0.125275,0.125275,0.125275,0.125275,0.125275,0.125275,0.125275,0.125275,
   **   ~~~   ** Air System Named = CENTRAL SYSTEM did not converge for energy
   **   ~~~   ** Check values should be zero. Most Recent values listed first.
   **   ~~~   ** Demand-to-Supply interface energy check value iteration history trace: 2985.030916,2985.030917,2985.030918,2985.030918,2985.030919,2985.030920,2985.030921,2985.030922,2985.030923,2985.030923,
   **   ~~~   ** Supply-to-demand interface deck 1 energy check value iteration history trace: 1562.692774,1562.692774,1562.692774,1562.692775,1562.692775,1562.692776,1562.692776,1562.692777,1562.692777,1562.692778,
   ** Warning ** SimHVAC: Maximum iterations (20) exceeded for all HVAC loops, at ANNUAL, 04/27 11:15 - 11:30
   **   ~~~   ** The solution for one or more of the Air Loop HVAC systems did not appear to converge
   **   ~~~   ** Air System Named = CENTRAL SYSTEM did not converge for mass flow rate
   **   ~~~   ** Check values should be zero. Most Recent values listed first.
   **   ~~~   ** Demand-to-Supply interface mass flow rate check value iteration history trace: 8.874781E-002,8.874781E-002,8.874781E-002,8.874781E-002,8.874781E-002,8.874781E-002,8.874781E-002,8.874781E-002,8.874781E-002,8.874781E-002,
   **   ~~~   ** Supply-to-demand interface deck 1 mass flow rate check value iteration history trace: 8.874781E-002,8.874781E-002,8.874781E-002,8.874781E-002,8.874781E-002,8.874781E-002,8.874781E-002,8.874781E-002,8.874781E-002,8.874781E-002,
   **   ~~~   ** Air System Named = CENTRAL SYSTEM did not converge for energy
   **   ~~~   ** Check values should be zero. Most Recent values listed first.
   **   ~~~   ** Demand-to-Supply interface energy check value iteration history trace: 2115.051576,2115.051576,2115.051577,2115.051577,2115.051577,2115.051577,2115.051577,2115.051577,2115.051577,2115.051578,
   **   ~~~   ** Supply-to-demand interface deck 1 energy check value iteration history trace: 1085.997664,1085.997664,1085.997665,1085.997665,1085.997665,1085.997665,1085.997665,1085.997665,1085.997665,1085.997665,
   ** Warning ** SimHVAC: Maximum iterations (20) exceeded for all HVAC loops, at ANNUAL, 11/05 21:00 - 21:15
   **   ~~~   ** The solution for one or more of the Air Loop HVAC systems did not appear to converge
   **   ~~~   ** Air System Named = CENTRAL SYSTEM did not converge for mass flow rate
   **   ~~~   ** Check values should be zero. Most Recent values listed first.
   **   ~~~   ** Demand-to-Supply interface mass flow rate check value iteration history trace: 7.674133E-002,7.674133E-002,7.674133E-002,7.674133E-002,7.674133E-002,7.674133E-002,7.674133E-002,7.674133E-002,7.674133E-002,7.674133E-002,
   **   ~~~   ** Supply-to-demand interface deck 1 mass flow rate check value iteration history trace: 7.674133E-002,7.674133E-002,7.674133E-002,7.674133E-002,7.674133E-002,7.674133E-002,7.674133E-002,7.674133E-002,7.674133E-002,7.674133E-002,
   **   ~~~   ** Air System Named = CENTRAL SYSTEM did not converge for energy
   **   ~~~   ** Check values should be zero. Most Recent values listed first.
   **   ~~~   ** Demand-to-Supply interface energy check value iteration history trace: 1827.268919,1827.268919,1827.268919,1827.268919,1827.268920,1827.268920,1827.268920,1827.268920,1827.268920,1827.268920,
   **   ~~~   ** Supply-to-demand interface deck 1 energy check value iteration history trace: 788.936554,788.936554,788.936554,788.936554,788.936554,788.936554,788.936554,788.936554,788.936554,788.936554,
   ** Warning ** SimHVAC: Maximum iterations (20) exceeded for all HVAC loops, at ANNUAL, 11/30 02:10 - 02:15
   **   ~~~   ** The solution for one or more of the Air Loop HVAC systems did not appear to converge
   **   ~~~   ** Air System Named = CENTRAL SYSTEM did not converge for mass flow rate
   **   ~~~   ** Check values should be zero. Most Recent values listed first.
   **   ~~~   ** Demand-to-Supply interface mass flow rate check value iteration history trace: 5.896605E-002,5.896605E-002,5.896605E-002,5.896605E-002,5.896605E-002,5.896605E-002,5.896605E-002,5.896605E-002,5.896605E-002,5.896605E-002,
   **   ~~~   ** Supply-to-demand interface deck 1 mass flow rate check value iteration history trace: 5.896605E-002,5.896605E-002,5.896605E-002,5.896605E-002,5.896605E-002,5.896605E-002,5.896605E-002,5.896605E-002,5.896605E-002,5.896605E-002,
   **   ~~~   ** Air System Named = CENTRAL SYSTEM did not converge for energy
   **   ~~~   ** Check values should be zero. Most Recent values listed first.
   **   ~~~   ** Demand-to-Supply interface energy check value iteration history trace: 1108.255235,1108.255235,1108.255235,1108.255235,1108.255235,1108.255235,1108.255235,1108.255235,1108.255235,1108.255235,
   **   ~~~   ** Supply-to-demand interface deck 1 energy check value iteration history trace: 1884.155580,1884.155580,1884.155580,1884.155580,1884.155580,1884.155580,1884.155580,1884.155580,1884.155580,1884.155580,
   ** Warning ** SimHVAC: Maximum iterations (20) exceeded for all HVAC loops, at ANNUAL, 11/30 09:00 - 09:15
   **   ~~~   ** The solution for one or more of the Air Loop HVAC systems did not appear to converge
   **   ~~~   ** Air System Named = CENTRAL SYSTEM did not converge for mass flow rate
   **   ~~~   ** Check values should be zero. Most Recent values listed first.
   **   ~~~   ** Demand-to-Supply interface mass flow rate check value iteration history trace: 6.582099E-002,6.582099E-002,6.582099E-002,6.582099E-002,6.582099E-002,6.582099E-002,6.582099E-002,6.582099E-002,6.582099E-002,6.582099E-002,
   **   ~~~   ** Supply-to-demand interface deck 1 mass flow rate check value iteration history trace: 6.582099E-002,6.582099E-002,6.582099E-002,6.582099E-002,6.582099E-002,6.582099E-002,6.582099E-002,6.582099E-002,6.582099E-002,6.582099E-002,
   **   ~~~   ** Air System Named = CENTRAL SYSTEM did not converge for energy
   **   ~~~   ** Check values should be zero. Most Recent values listed first.
   **   ~~~   ** Demand-to-Supply interface energy check value iteration history trace: 1304.404482,1304.404482,1304.404482,1304.404482,1304.404482,1304.404482,1304.404482,1304.404482,1304.404482,1304.404482,
   **   ~~~   ** Supply-to-demand interface deck 1 energy check value iteration history trace: 2177.954998,2177.954998,2177.954998,2177.954998,2177.954998,2177.954998,2177.954998,2177.954997,2177.954997,2177.954997,
   ************* Simulation Error Summary *************
   ** Warning ** The following Report Variables were requested but not generated -- check.rdd file
   **   ~~~   ** Either the IDF did not contain these elements, the variable name is misspelled,
   **   ~~~   ** or the requested variable is an advanced output which requires Output : Diagnostics, DisplayAdvancedReportVariables;
   ************* Key=*, VarName=BASEBOARD TOTAL HEATING ENERGY, Frequency=
   ************* Key=*, VarName=WATER HEATER NATURALGAS ENERGY, Frequency=
   ************* Key=*, VarName=COOLING COIL TOTAL HEATING ENERGY, Frequency=
   ************* There are 34 unused schedules in input.
   ************* There are 388 unused week schedules in input.
   ************* There are 397 unused day schedules in input.
   ************* Use Output:Diagnostics,DisplayUnusedSchedules; to see them.
   *************
   ************* ===== Recurring Error Summary =====
   ************* The following recurring error messages occurred.
   *************
   *************  ** Warning ** "TOTAL HOT WATER LOAD" - Target water temperature should be less than or equal to the hot water temperature error continues...
   *************  **   ~~~   **   This error occurred 132277 total times;
   *************  **   ~~~   **   during Warmup 0 times;
   *************  **   ~~~   **   during Sizing 0 times.
   *************  **   ~~~   **   Max=9.5629  Min=1.045491E-003
   *************
   *************  ** Warning ** SimHVAC: Exceeding Maximum iterations for all HVAC loops, during ANNUAL continues
   *************  **   ~~~   **   This error occurred 4 total times;
   *************  **   ~~~   **   during Warmup 0 times;
   *************  **   ~~~   **   during Sizing 0 times.
   *************
   *************
   ************* ===== Final Error Summary =====
   ************* The following error categories occurred.  Consider correcting or noting.
   ************* Nominally Unused Constructions
   ************* ..The nominally unused constructions warning is provided to alert you to potential conditions that can cause
   ************* ..extra time during simulation. Each construction is calculated by the algorithm indicated in the HeatBalanceAlgorithm
   ************* ..object. You may remove the constructions indicated (when you use the DisplayExtraWarnings option).
   *************
   ************* EnergyPlus Warmup Error Summary. During Warmup: 1 Warning; 0 Severe Errors.
   ************* EnergyPlus Sizing Error Summary. During Sizing: 4 Warning; 0 Severe Errors.
   ************* EnergyPlus Completed Successfully-- 132314 Warning; 0 Severe Errors; Elapsed Time=00hr 01min 47.41sec
