Program Version,EnergyPlus, Version 22.2.0-c249759bad, YMD=2023.09.01 19:29,
   ************* Beginning Zone Sizing Calculations
   ** Warning ** ProcessScheduleInput: Schedule:Constant="ALWAYS ON DISCRETE", Schedule Type Limits Name="ONOFF" not found -- will not be validated
   ** Warning ** Foundation:Kiva="KIVA FOUNDATION", no Interior Horizontal Insulation Material Name defined
   **   ~~~   ** Interior Horizontal Insulation Depth will not be used.
   ** Warning ** CheckUsedConstructions: There are 15 nominally unused constructions in input.
   **   ~~~   ** Each Unused construction is shown.
   ************* Construction=INTERIOR FLOOR
   ************* Construction=INTERIOR WINDOW
   ************* Construction=EXTERIOR DOOR
   ************* Construction=INTERIOR DOOR
   ************* Construction=GABLE CONSTRUCTION
   ************* Construction=CRAWL_FLOOR
   ************* Construction=INSULATED PIPE
   ************* Construction=PLAIN PIPE
   ************* Construction=TDD PIPE
   ************* Construction=TDD DOME
   ************* Construction=TDD DIFFUSER
   ************* Construction=CRAWL WALL
   ************* Construction=CEILING-FLOOR-LAYER
   ************* Construction=SLAB CONSTRUCTION W FULL R10 INSULATION
   ************* Construction=SLAB CONSTRUCTION W FULL R5 INSULATION
   ** Warning ** GetDXCoils: Coil:Heating:DX:SingleSpeed="DX_HEATING_COIL" curve values
   **   ~~~   ** ... Defrost Energy Input Ratio Function of Temperature Curve Name = DEFROSTEIR output is not equal to 1.0 (+ or - 10%) at rated conditions.
   **   ~~~   ** ... Curve output at rated conditions = 0.152
   ************* Beginning System Sizing Calculations
   ************* Beginning Plant Sizing Calculations
   ** Warning ** Coil:WaterHeating:AirToWaterHeatPump:Wrapped "HEAT PUMP WATER HEATER EVAPORATOR": Rated air volume flow rate per watt of rated total water heating capacity is out of range
   **   ~~~   ** Min Rated Vol Flow Per Watt=[4.027E-005], Rated Vol Flow Per Watt=[1.510E-004], Max Rated Vol Flow Per Watt=[8.056E-005]. See Input-Output Reference Manual for valid range.
   ************* SizeFan: : Potential issue with equipment sizing for Fan:OnOff HEAT PUMP WATER HEATER FAN
   **   ~~~   ** User-Specified Maximum Flow Rate [m3/s] = 0.22653
   **   ~~~   ** differs from Design Size Maximum Flow Rate [m3/s] = 7.55250E-002
   **   ~~~   ** This may, or may not, indicate mismatched component sizes.
   **   ~~~   ** Verify that the value entered is intended and is consistent with other components.
   ** Warning ** Water heater = WATER HEATER TANK:  Recovery Efficiency and Energy Factor could not be calculated during the test for standard ratings
   **   ~~~   ** Setpoint was never recovered and/or heater never turned on
   ** Warning ** Check input. Pump nominal power or motor efficiency is set to 0, for pump=MAINS PRESSURE
   ** Warning ** AirflowNetwork::Solver::validate_distribution: Heat pump water heater is simulated along with an AirflowNetwork but is not included in the AirflowNetwork.
   ** Warning ** Output:Meter: invalid Key Name="ELECTRIC_RANGE:INTERIOREQUIPMENT:ELECTRICITY" - not found.
   ** Warning ** Output:Meter: invalid Key Name="ELECTRIC_DRYER:INTERIOREQUIPMENT:ELECTRICITY" - not found.
   ** Warning ** Output:Meter: invalid Key Name="HEATRECOVERY:ELECTRICITY" - not found.
   ** Warning ** Output:Meter: invalid Key Name="HEATING:NATURALGAS" - not found.
   ** Warning ** Output:Meter: invalid Key Name="WATERSYSTEMS:NATURALGAS" - not found.
   ** Warning ** Output:Meter: invalid Key Name="PROPANE:FACILITY" - not found.
   ** Warning ** Output:Meter: invalid Key Name="HEATING:PROPANE" - not found.
   ************* Testing Individual Branch Integrity
   ************* All Branches passed integrity testing
   ************* Testing Individual Supply Air Path Integrity
   ************* All Supply Air Paths passed integrity testing
   ************* Testing Individual Return Air Path Integrity
   ************* All Return Air Paths passed integrity testing
   ************* No node connection errors were found.
   ************* Beginning Simulation
   ** Warning ** CalcEquipmentFlowRates: "TOTAL HOT WATER LOAD" - Target water temperature is greater than the hot water temperature by (2.13 C)
   **   ~~~   **  Environment=EXTREME_WINTER, at Simulation time=01/20 06:00 - 06:15
   **   ~~~   ** ...target water temperature     = 53.33 C
   **   ~~~   ** ...hot water temperature        = 51.20 C
   **   ~~~   ** ...Target water temperature should be less than or equal to the hot water temperature. Verify temperature setpoints and schedules.
   ** Warning ** SimHVAC: Maximum iterations (20) exceeded for all HVAC loops, at ANNUAL, 03/10 11:53 - 11:56
   **   ~~~   ** The solution for one or more of the Air Loop HVAC systems did not appear to converge
   **   ~~~   ** Air System Named = CENTRAL SYSTEM did not converge for mass flow rate
   **   ~~~   ** Check values should be zero. Most Recent values listed first.
   **   ~~~   ** Demand-to-Supply interface mass flow rate check value iteration history trace: 7.784431E-002,7.784431E-002,7.784431E-002,7.784431E-002,7.784431E-002,7.784431E-002,7.784431E-002,7.784431E-002,7.784431E-002,7.784431E-002,
   **   ~~~   ** Supply-to-demand interface deck 1 mass flow rate check value iteration history trace: 7.784431E-002,7.784431E-002,7.784431E-002,7.784431E-002,7.784431E-002,7.784431E-002,7.784431E-002,7.784431E-002,7.784431E-002,7.784431E-002,
   **   ~~~   ** Air System Named = CENTRAL SYSTEM did not converge for energy
   **   ~~~   ** Check values should be zero. Most Recent values listed first.
   **   ~~~   ** Demand-to-Supply interface energy check value iteration history trace: 1543.135488,1543.135488,1543.135488,1543.135488,1543.135488,1543.135488,1543.135488,1543.135488,1543.135488,1543.135488,
   **   ~~~   ** Supply-to-demand interface deck 1 energy check value iteration history trace: 2456.266118,2456.266118,2456.266117,2456.266117,2456.266117,2456.266117,2456.266117,2456.266117,2456.266117,2456.266116,
   ** Warning ** SimHVAC: Maximum iterations (20) exceeded for all HVAC loops, at ANNUAL, 03/25 19:40 - 19:45
   **   ~~~   ** The solution for one or more of the Air Loop HVAC systems did not appear to converge
   **   ~~~   ** Air System Named = CENTRAL SYSTEM did not converge for mass flow rate
   **   ~~~   ** Check values should be zero. Most Recent values listed first.
   **   ~~~   ** Demand-to-Supply interface mass flow rate check value iteration history trace: 6.195358E-002,6.195358E-002,6.195358E-002,6.195358E-002,6.195358E-002,6.195358E-002,6.195358E-002,6.195358E-002,6.195358E-002,6.195358E-002,
   **   ~~~   ** Supply-to-demand interface deck 1 mass flow rate check value iteration history trace: 6.195358E-002,6.195358E-002,6.195358E-002,6.195358E-002,6.195358E-002,6.195358E-002,6.195358E-002,6.195358E-002,6.195358E-002,6.195358E-002,
   **   ~~~   ** Air System Named = CENTRAL SYSTEM did not converge for energy
   **   ~~~   ** Check values should be zero. Most Recent values listed first.
   **   ~~~   ** Demand-to-Supply interface energy check value iteration history trace: 1214.055903,1214.055903,1214.055902,1214.055902,1214.055902,1214.055902,1214.055902,1214.055902,1214.055902,1214.055902,
   **   ~~~   ** Supply-to-demand interface deck 1 energy check value iteration history trace: 2116.470296,2116.470296,2116.470296,2116.470296,2116.470296,2116.470296,2116.470296,2116.470296,2116.470296,2116.470296,
   ** Warning ** SimHVAC: Maximum iterations (20) exceeded for all HVAC loops, at ANNUAL, 04/03 18:30 - 18:38
   **   ~~~   ** The solution for one or more of the Air Loop HVAC systems did not appear to converge
   **   ~~~   ** Air System Named = CENTRAL SYSTEM did not converge for mass flow rate
   **   ~~~   ** Check values should be zero. Most Recent values listed first.
   **   ~~~   ** Demand-to-Supply interface mass flow rate check value iteration history trace: 6.785835E-002,6.785835E-002,6.785835E-002,6.785835E-002,6.785835E-002,6.785835E-002,6.785835E-002,6.785835E-002,6.785835E-002,6.785835E-002,
   **   ~~~   ** Supply-to-demand interface deck 1 mass flow rate check value iteration history trace: 6.785835E-002,6.785835E-002,6.785835E-002,6.785835E-002,6.785835E-002,6.785835E-002,6.785835E-002,6.785835E-002,6.785835E-002,6.785835E-002,
   **   ~~~   ** Air System Named = CENTRAL SYSTEM did not converge for energy
   **   ~~~   ** Check values should be zero. Most Recent values listed first.
   **   ~~~   ** Demand-to-Supply interface energy check value iteration history trace: 1342.372623,1342.372623,1342.372623,1342.372623,1342.372623,1342.372623,1342.372623,1342.372623,1342.372623,1342.372623,
   **   ~~~   ** Supply-to-demand interface deck 1 energy check value iteration history trace: 2324.437222,2324.437222,2324.437222,2324.437222,2324.437222,2324.437222,2324.437222,2324.437222,2324.437222,2324.437222,
   ** Warning ** SimHVAC: Maximum iterations (20) exceeded for all HVAC loops, at ANNUAL, 04/05 08:36 - 08:39
   **   ~~~   ** The solution for one or more of the Air Loop HVAC systems did not appear to converge
   **   ~~~   ** Air System Named = CENTRAL SYSTEM did not converge for mass flow rate
   **   ~~~   ** Check values should be zero. Most Recent values listed first.
   **   ~~~   ** Demand-to-Supply interface mass flow rate check value iteration history trace: 6.017402E-002,6.017402E-002,6.017402E-002,6.017402E-002,6.017402E-002,6.017402E-002,6.017402E-002,6.017402E-002,6.017402E-002,6.017402E-002,
   **   ~~~   ** Supply-to-demand interface deck 1 mass flow rate check value iteration history trace: 6.017402E-002,6.017402E-002,6.017402E-002,6.017402E-002,6.017402E-002,6.017402E-002,6.017402E-002,6.017402E-002,6.017402E-002,6.017402E-002,
   **   ~~~   ** Air System Named = CENTRAL SYSTEM did not converge for energy
   **   ~~~   ** Check values should be zero. Most Recent values listed first.
   **   ~~~   ** Demand-to-Supply interface energy check value iteration history trace: 1189.088935,1189.088935,1189.088935,1189.088935,1189.088935,1189.088935,1189.088935,1189.088935,1189.088935,1189.088935,
   **   ~~~   ** Supply-to-demand interface deck 1 energy check value iteration history trace: 2115.375743,2115.375743,2115.375743,2115.375742,2115.375742,2115.375742,2115.375742,2115.375742,2115.375742,2115.375742,
   ** Warning ** SimHVAC: Maximum iterations (20) exceeded for all HVAC loops, at ANNUAL, 04/08 00:23 - 00:30
   **   ~~~   ** The solution for one or more of the Air Loop HVAC systems did not appear to converge
   **   ~~~   ** Air System Named = CENTRAL SYSTEM did not converge for mass flow rate
   **   ~~~   ** Check values should be zero. Most Recent values listed first.
   **   ~~~   ** Demand-to-Supply interface mass flow rate check value iteration history trace: 8.407242E-002,8.407242E-002,8.407242E-002,8.407242E-002,8.407242E-002,8.407242E-002,8.407242E-002,8.407242E-002,8.407242E-002,8.407242E-002,
   **   ~~~   ** Supply-to-demand interface deck 1 mass flow rate check value iteration history trace: 8.407242E-002,8.407242E-002,8.407242E-002,8.407242E-002,8.407242E-002,8.407242E-002,8.407242E-002,8.407242E-002,8.407242E-002,8.407242E-002,
   **   ~~~   ** Air System Named = CENTRAL SYSTEM did not converge for energy
   **   ~~~   ** Check values should be zero. Most Recent values listed first.
   **   ~~~   ** Demand-to-Supply interface energy check value iteration history trace: 1583.488200,1583.488200,1583.488200,1583.488200,1583.488200,1583.488199,1583.488199,1583.488199,1583.488199,1583.488199,
   **   ~~~   ** Supply-to-demand interface deck 1 energy check value iteration history trace: 2468.864327,2468.864327,2468.864327,2468.864326,2468.864326,2468.864326,2468.864326,2468.864326,2468.864326,2468.864326,
   ** Warning ** SimHVAC: Maximum iterations (20) exceeded for all HVAC loops, at ANNUAL, 04/08 09:26 - 09:30
   **   ~~~   ** The solution for one or more of the Air Loop HVAC systems did not appear to converge
   **   ~~~   ** Air System Named = CENTRAL SYSTEM did not converge for mass flow rate
   **   ~~~   ** Check values should be zero. Most Recent values listed first.
   **   ~~~   ** Demand-to-Supply interface mass flow rate check value iteration history trace: 7.135538E-002,7.135538E-002,7.135538E-002,7.135538E-002,7.135538E-002,7.135538E-002,7.135538E-002,7.135538E-002,7.135538E-002,7.135538E-002,
   **   ~~~   ** Supply-to-demand interface deck 1 mass flow rate check value iteration history trace: 7.135538E-002,7.135538E-002,7.135538E-002,7.135538E-002,7.135538E-002,7.135538E-002,7.135538E-002,7.135538E-002,7.135538E-002,7.135538E-002,
   **   ~~~   ** Air System Named = CENTRAL SYSTEM did not converge for energy
   **   ~~~   ** Check values should be zero. Most Recent values listed first.
   **   ~~~   ** Demand-to-Supply interface energy check value iteration history trace: 1410.976786,1410.976786,1410.976786,1410.976786,1410.976786,1410.976786,1410.976786,1410.976785,1410.976785,1410.976785,
   **   ~~~   ** Supply-to-demand interface deck 1 energy check value iteration history trace: 2537.954363,2537.954363,2537.954363,2537.954363,2537.954363,2537.954362,2537.954362,2537.954362,2537.954362,2537.954362,
   ** Warning ** SimHVAC: Maximum iterations (20) exceeded for all HVAC loops, at ANNUAL, 04/09 10:40 - 10:45
   **   ~~~   ** The solution for one or more of the Air Loop HVAC systems did not appear to converge
   **   ~~~   ** Air System Named = CENTRAL SYSTEM did not converge for mass flow rate
   **   ~~~   ** Check values should be zero. Most Recent values listed first.
   **   ~~~   ** Demand-to-Supply interface mass flow rate check value iteration history trace: 7.125802E-002,7.125802E-002,7.125802E-002,7.125802E-002,7.125802E-002,7.125802E-002,7.125802E-002,7.125802E-002,7.125802E-002,7.125802E-002,
   **   ~~~   ** Supply-to-demand interface deck 1 mass flow rate check value iteration history trace: 7.125802E-002,7.125802E-002,7.125802E-002,7.125802E-002,7.125802E-002,7.125802E-002,7.125802E-002,7.125802E-002,7.125802E-002,7.125802E-002,
   **   ~~~   ** Air System Named = CENTRAL SYSTEM did not converge for energy
   **   ~~~   ** Check values should be zero. Most Recent values listed first.
   **   ~~~   ** Demand-to-Supply interface energy check value iteration history trace: 1406.564835,1406.564835,1406.564835,1406.564835,1406.564835,1406.564835,1406.564835,1406.564835,1406.564835,1406.564835,
   **   ~~~   ** Supply-to-demand interface deck 1 energy check value iteration history trace: 2501.666274,2501.666274,2501.666274,2501.666274,2501.666274,2501.666274,2501.666274,2501.666274,2501.666273,2501.666273,
   ** Warning ** SimHVAC: Maximum iterations (20) exceeded for all HVAC loops, at ANNUAL, 04/13 08:34 - 08:36
   **   ~~~   ** The solution for one or more of the Air Loop HVAC systems did not appear to converge
   **   ~~~   ** Air System Named = CENTRAL SYSTEM did not converge for mass flow rate
   **   ~~~   ** Check values should be zero. Most Recent values listed first.
   **   ~~~   ** Demand-to-Supply interface mass flow rate check value iteration history trace: 7.114137E-002,7.114137E-002,7.114137E-002,7.114137E-002,7.114137E-002,7.114137E-002,7.114137E-002,7.114137E-002,7.114137E-002,7.114137E-002,
   **   ~~~   ** Supply-to-demand interface deck 1 mass flow rate check value iteration history trace: 7.114137E-002,7.114137E-002,7.114137E-002,7.114137E-002,7.114137E-002,7.114137E-002,7.114137E-002,7.114137E-002,7.114137E-002,7.114137E-002,
   **   ~~~   ** Air System Named = CENTRAL SYSTEM did not converge for energy
   **   ~~~   ** Check values should be zero. Most Recent values listed first.
   **   ~~~   ** Demand-to-Supply interface energy check value iteration history trace: 1409.856619,1409.856619,1409.856619,1409.856619,1409.856619,1409.856618,1409.856618,1409.856618,1409.856618,1409.856618,
   **   ~~~   ** Supply-to-demand interface deck 1 energy check value iteration history trace: 2408.466923,2408.466922,2408.466922,2408.466922,2408.466922,2408.466922,2408.466922,2408.466922,2408.466922,2408.466922,
   ** Warning ** SimHVAC: Maximum iterations (20) exceeded for all HVAC loops, at ANNUAL, 04/21 08:45 - 08:47
   **   ~~~   ** The solution for one or more of the Air Loop HVAC systems did not appear to converge
   **   ~~~   ** Air System Named = CENTRAL SYSTEM did not converge for mass flow rate
   **   ~~~   ** Check values should be zero. Most Recent values listed first.
   **   ~~~   ** Demand-to-Supply interface mass flow rate check value iteration history trace: 3.040386E-002,3.040386E-002,3.040386E-002,3.040386E-002,3.040386E-002,3.040386E-002,3.040386E-002,3.040386E-002,3.040386E-002,3.040386E-002,
   **   ~~~   ** Supply-to-demand interface deck 1 mass flow rate check value iteration history trace: 3.040386E-002,3.040386E-002,3.040386E-002,3.040386E-002,3.040386E-002,3.040386E-002,3.040386E-002,3.040386E-002,3.040386E-002,3.040386E-002,
   **   ~~~   ** Air System Named = CENTRAL SYSTEM did not converge for energy
   **   ~~~   ** Check values should be zero. Most Recent values listed first.
   **   ~~~   ** Demand-to-Supply interface energy check value iteration history trace: 601.685901,601.685901,601.685901,601.685901,601.685901,601.685901,601.685901,601.685901,601.685901,601.685901,
   **   ~~~   ** Supply-to-demand interface deck 1 energy check value iteration history trace: 1048.706801,1048.706801,1048.706801,1048.706801,1048.706801,1048.706801,1048.706801,1048.706801,1048.706801,1048.706801,
   ** Warning ** SimHVAC: Maximum iterations (20) exceeded for all HVAC loops, at ANNUAL, 04/23 13:32 - 13:34
   **   ~~~   ** The solution for one or more of the Air Loop HVAC systems did not appear to converge
   **   ~~~   ** Air System Named = CENTRAL SYSTEM did not converge for mass flow rate
   **   ~~~   ** Check values should be zero. Most Recent values listed first.
   **   ~~~   ** Demand-to-Supply interface mass flow rate check value iteration history trace: 5.794910E-002,5.794910E-002,5.794910E-002,5.794910E-002,5.794910E-002,5.794910E-002,5.794910E-002,5.794910E-002,5.794910E-002,5.794910E-002,
   **   ~~~   ** Supply-to-demand interface deck 1 mass flow rate check value iteration history trace: 5.794910E-002,5.794910E-002,5.794910E-002,5.794910E-002,5.794910E-002,5.794910E-002,5.794910E-002,5.794910E-002,5.794910E-002,5.794910E-002,
   **   ~~~   ** Air System Named = CENTRAL SYSTEM did not converge for energy
   **   ~~~   ** Check values should be zero. Most Recent values listed first.
   **   ~~~   ** Demand-to-Supply interface energy check value iteration history trace: 1148.446629,1148.446629,1148.446629,1148.446629,1148.446629,1148.446629,1148.446629,1148.446629,1148.446629,1148.446629,
   **   ~~~   ** Supply-to-demand interface deck 1 energy check value iteration history trace: 1969.308627,1969.308627,1969.308627,1969.308626,1969.308626,1969.308626,1969.308626,1969.308626,1969.308626,1969.308626,
   ** Warning ** SimHVAC: Maximum iterations (20) exceeded for all HVAC loops, at ANNUAL, 04/26 05:15 - 05:30
   **   ~~~   ** The solution for one or more of the Air Loop HVAC systems did not appear to converge
   **   ~~~   ** Air System Named = CENTRAL SYSTEM did not converge for mass flow rate
   **   ~~~   ** Check values should be zero. Most Recent values listed first.
   **   ~~~   ** Demand-to-Supply interface mass flow rate check value iteration history trace: 5.933734E-002,5.933734E-002,5.933734E-002,5.933734E-002,5.933734E-002,5.933734E-002,5.933734E-002,5.933734E-002,5.933734E-002,5.933734E-002,
   **   ~~~   ** Supply-to-demand interface deck 1 mass flow rate check value iteration history trace: 5.933734E-002,5.933734E-002,5.933734E-002,5.933734E-002,5.933734E-002,5.933734E-002,5.933734E-002,5.933734E-002,5.933734E-002,5.933734E-002,
   **   ~~~   ** Air System Named = CENTRAL SYSTEM did not converge for energy
   **   ~~~   ** Check values should be zero. Most Recent values listed first.
   **   ~~~   ** Demand-to-Supply interface energy check value iteration history trace: 1163.890508,1163.890508,1163.890508,1163.890508,1163.890508,1163.890507,1163.890507,1163.890507,1163.890507,1163.890507,
   **   ~~~   ** Supply-to-demand interface deck 1 energy check value iteration history trace: 2010.161705,2010.161705,2010.161705,2010.161705,2010.161705,2010.161705,2010.161705,2010.161704,2010.161704,2010.161704,
   ** Warning ** SimHVAC: Maximum iterations (20) exceeded for all HVAC loops, at ANNUAL, 04/29 09:45 - 10:00
   **   ~~~   ** The solution for one or more of the Air Loop HVAC systems did not appear to converge
   **   ~~~   ** Air System Named = CENTRAL SYSTEM did not converge for mass flow rate
   **   ~~~   ** Check values should be zero. Most Recent values listed first.
   **   ~~~   ** Demand-to-Supply interface mass flow rate check value iteration history trace: 7.664243E-002,7.664243E-002,7.664243E-002,7.664243E-002,7.664243E-002,7.664243E-002,7.664243E-002,7.664243E-002,7.664243E-002,7.664243E-002,
   **   ~~~   ** Supply-to-demand interface deck 1 mass flow rate check value iteration history trace: 7.664243E-002,7.664243E-002,7.664243E-002,7.664243E-002,7.664243E-002,7.664243E-002,7.664243E-002,7.664243E-002,7.664243E-002,7.664243E-002,
   **   ~~~   ** Air System Named = CENTRAL SYSTEM did not converge for energy
   **   ~~~   ** Check values should be zero. Most Recent values listed first.
   **   ~~~   ** Demand-to-Supply interface energy check value iteration history trace: 1518.777597,1518.777597,1518.777597,1518.777597,1518.777597,1518.777597,1518.777597,1518.777597,1518.777597,1518.777596,
   **   ~~~   ** Supply-to-demand interface deck 1 energy check value iteration history trace: 2615.053895,2615.053895,2615.053895,2615.053895,2615.053895,2615.053894,2615.053894,2615.053894,2615.053894,2615.053894,
   ** Warning ** SimHVAC: Maximum iterations (20) exceeded for all HVAC loops, at ANNUAL, 04/30 09:30 - 09:45
   **   ~~~   ** The solution for one or more of the Air Loop HVAC systems did not appear to converge
   **   ~~~   ** Air System Named = CENTRAL SYSTEM did not converge for mass flow rate
   **   ~~~   ** Check values should be zero. Most Recent values listed first.
   **   ~~~   ** Demand-to-Supply interface mass flow rate check value iteration history trace: 7.433611E-002,7.433611E-002,7.433611E-002,7.433611E-002,7.433611E-002,7.433611E-002,7.433611E-002,7.433611E-002,7.433611E-002,7.433611E-002,
   **   ~~~   ** Supply-to-demand interface deck 1 mass flow rate check value iteration history trace: 7.433611E-002,7.433611E-002,7.433611E-002,7.433611E-002,7.433611E-002,7.433611E-002,7.433611E-002,7.433611E-002,7.433611E-002,7.433611E-002,
   **   ~~~   ** Air System Named = CENTRAL SYSTEM did not converge for energy
   **   ~~~   ** Check values should be zero. Most Recent values listed first.
   **   ~~~   ** Demand-to-Supply interface energy check value iteration history trace: 1473.108149,1473.108149,1473.108149,1473.108149,1473.108149,1473.108149,1473.108149,1473.108149,1473.108149,1473.108149,
   **   ~~~   ** Supply-to-demand interface deck 1 energy check value iteration history trace: 2608.751193,2608.751193,2608.751193,2608.751193,2608.751192,2608.751192,2608.751192,2608.751192,2608.751192,2608.751192,
   ** Warning ** SimHVAC: Maximum iterations (20) exceeded for all HVAC loops, at ANNUAL, 05/07 09:45 - 09:50
   **   ~~~   ** The solution for one or more of the Air Loop HVAC systems did not appear to converge
   **   ~~~   ** Air System Named = CENTRAL SYSTEM did not converge for mass flow rate
   **   ~~~   ** Check values should be zero. Most Recent values listed first.
   **   ~~~   ** Demand-to-Supply interface mass flow rate check value iteration history trace: 7.053925E-002,7.053925E-002,7.053925E-002,7.053925E-002,7.053925E-002,7.053925E-002,7.053925E-002,7.053925E-002,7.053925E-002,7.053925E-002,
   **   ~~~   ** Supply-to-demand interface deck 1 mass flow rate check value iteration history trace: 7.053925E-002,7.053925E-002,7.053925E-002,7.053925E-002,7.053925E-002,7.053925E-002,7.053925E-002,7.053925E-002,7.053925E-002,7.053925E-002,
   **   ~~~   ** Air System Named = CENTRAL SYSTEM did not converge for energy
   **   ~~~   ** Check values should be zero. Most Recent values listed first.
   **   ~~~   ** Demand-to-Supply interface energy check value iteration history trace: 1397.802376,1397.802375,1397.802375,1397.802375,1397.802375,1397.802375,1397.802375,1397.802375,1397.802375,1397.802375,
   **   ~~~   ** Supply-to-demand interface deck 1 energy check value iteration history trace: 2504.363242,2504.363242,2504.363242,2504.363242,2504.363241,2504.363241,2504.363241,2504.363241,2504.363241,2504.363241,
   ************* Simulation Error Summary *************
   ** Warning ** The following Report Variables were requested but not generated -- check.rdd file
   **   ~~~   ** Either the IDF did not contain these elements, the variable name is misspelled,
   **   ~~~   ** or the requested variable is an advanced output which requires Output : Diagnostics, DisplayAdvancedReportVariables;
   ************* Key=*, VarName=BASEBOARD TOTAL HEATING ENERGY, Frequency=
   ************* Key=*, VarName=WATER HEATER NATURALGAS ENERGY, Frequency=
   ************* Key=*, VarName=COOLING COIL TOTAL HEATING ENERGY, Frequency=
   ************* There are 34 unused schedules in input.
   ************* There are 388 unused week schedules in input.
   ************* There are 396 unused day schedules in input.
   ************* Use Output:Diagnostics,DisplayUnusedSchedules; to see them.
   *************
   ************* ===== Recurring Error Summary =====
   ************* The following recurring error messages occurred.
   *************
   *************  ** Warning ** "TOTAL HOT WATER LOAD" - Target water temperature should be less than or equal to the hot water temperature error continues...
   *************  **   ~~~   **   This error occurred 98779 total times;
   *************  **   ~~~   **   during Warmup 0 times;
   *************  **   ~~~   **   during Sizing 0 times.
   *************  **   ~~~   **   Max=10.481822  Min=2.096103E-003
   *************
   *************  ** Warning ** SimHVAC: Exceeding Maximum iterations for all HVAC loops, during ANNUAL continues
   *************  **   ~~~   **   This error occurred 12 total times;
   *************  **   ~~~   **   during Warmup 0 times;
   *************  **   ~~~   **   during Sizing 0 times.
   *************
   *************
   ************* ===== Final Error Summary =====
   ************* The following error categories occurred.  Consider correcting or noting.
   ************* Nominally Unused Constructions
   ************* ..The nominally unused constructions warning is provided to alert you to potential conditions that can cause
   ************* ..extra time during simulation. Each construction is calculated by the algorithm indicated in the HeatBalanceAlgorithm
   ************* ..object. You may remove the constructions indicated (when you use the DisplayExtraWarnings option).
   *************
   ************* EnergyPlus Warmup Error Summary. During Warmup: 0 Warning; 0 Severe Errors.
   ************* EnergyPlus Sizing Error Summary. During Sizing: 4 Warning; 0 Severe Errors.
   ************* EnergyPlus Completed Successfully-- 98822 Warning; 0 Severe Errors; Elapsed Time=00hr 01min 20.30sec
