Program Version,EnergyPlus, Version 22.2.0-c249759bad, YMD=2023.09.01 19:08,
   ************* Beginning Zone Sizing Calculations
   ** Warning ** ProcessScheduleInput: Schedule:Constant="ALWAYS ON DISCRETE", Schedule Type Limits Name="ONOFF" not found -- will not be validated
   ** Warning ** Foundation:Kiva="KIVA FOUNDATION", no Interior Horizontal Insulation Material Name defined
   **   ~~~   ** Interior Horizontal Insulation Depth will not be used.
   ** Warning ** CheckUsedConstructions: There are 15 nominally unused constructions in input.
   **   ~~~   ** Each Unused construction is shown.
   ************* Construction=INTERIOR FLOOR
   ************* Construction=INTERIOR WINDOW
   ************* Construction=EXTERIOR DOOR
   ************* Construction=INTERIOR DOOR
   ************* Construction=GABLE CONSTRUCTION
   ************* Construction=CRAWL_FLOOR
   ************* Construction=INSULATED PIPE
   ************* Construction=PLAIN PIPE
   ************* Construction=TDD PIPE
   ************* Construction=TDD DOME
   ************* Construction=TDD DIFFUSER
   ************* Construction=CRAWL WALL
   ************* Construction=CEILING-FLOOR-LAYER
   ************* Construction=SLAB CONSTRUCTION W FULL R10 INSULATION
   ************* Construction=SLAB CONSTRUCTION W FULL R5 INSULATION
   ** Warning ** GetDXCoils: Coil:Heating:DX:SingleSpeed="DX_HEATING_COIL" curve values
   **   ~~~   ** ... Defrost Energy Input Ratio Function of Temperature Curve Name = DEFROSTEIR output is not equal to 1.0 (+ or - 10%) at rated conditions.
   **   ~~~   ** ... Curve output at rated conditions = 0.152
   ************* Beginning System Sizing Calculations
   ************* Beginning Plant Sizing Calculations
   ** Warning ** SizeDXCoil Coil:Cooling:DX:SingleSpeed DX_COOLING_COIL
   **   ~~~   ** ...Gross Rated Total Cooling Capacity [W] will be limited by the maximum rated volume flow per rated total capacity ratio.
   **   ~~~   ** ...DX coil volume flow rate ( m3/s ) = 0.514128
   **   ~~~   ** ...Requested capacity ( W ) = 5690.464
   **   ~~~   ** ...Requested flow/capacity ratio ( m3/s/W ) = 9.034E-005
   **   ~~~   ** ...Maximum flow/capacity ratio ( m3/s/W ) = 6.041E-005
   **   ~~~   ** ...Adjusted capacity ( W ) = 8510.652
   ** Warning ** SizeDXCoil Coil:Heating:DX:SingleSpeed DX_HEATING_COIL
   **   ~~~   ** ...Gross Rated Heating Capacity [W] will be limited by the maximum rated volume flow per rated total capacity ratio.
   **   ~~~   ** ...DX coil volume flow rate ( m3/s ) = 0.514128
   **   ~~~   ** ...Requested capacity ( W ) = 8510.652
   **   ~~~   ** ...Requested flow/capacity ratio ( m3/s/W ) = 6.041E-005
   **   ~~~   ** ...Maximum flow/capacity ratio ( m3/s/W ) = 6.041E-005
   **   ~~~   ** ...Adjusted capacity ( W ) = 8510.652
   ** Warning ** Coil:WaterHeating:AirToWaterHeatPump:Wrapped "HEAT PUMP WATER HEATER EVAPORATOR": Rated air volume flow rate per watt of rated total water heating capacity is out of range
   **   ~~~   ** Min Rated Vol Flow Per Watt=[4.027E-005], Rated Vol Flow Per Watt=[1.510E-004], Max Rated Vol Flow Per Watt=[8.056E-005]. See Input-Output Reference Manual for valid range.
   ************* SizeFan: : Potential issue with equipment sizing for Fan:OnOff HEAT PUMP WATER HEATER FAN
   **   ~~~   ** User-Specified Maximum Flow Rate [m3/s] = 0.22653
   **   ~~~   ** differs from Design Size Maximum Flow Rate [m3/s] = 7.55250E-002
   **   ~~~   ** This may, or may not, indicate mismatched component sizes.
   **   ~~~   ** Verify that the value entered is intended and is consistent with other components.
   ** Warning ** Water heater = WATER HEATER TANK:  Recovery Efficiency and Energy Factor could not be calculated during the test for standard ratings
   **   ~~~   ** Setpoint was never recovered and/or heater never turned on
   ** Warning ** Check input. Pump nominal power or motor efficiency is set to 0, for pump=MAINS PRESSURE
   ** Warning ** Output:Meter: invalid Key Name="ELECTRIC_RANGE:INTERIOREQUIPMENT:ELECTRICITY" - not found.
   ** Warning ** Output:Meter: invalid Key Name="ELECTRIC_DRYER:INTERIOREQUIPMENT:ELECTRICITY" - not found.
   ** Warning ** Output:Meter: invalid Key Name="HEATRECOVERY:ELECTRICITY" - not found.
   ** Warning ** Output:Meter: invalid Key Name="HEATING:NATURALGAS" - not found.
   ** Warning ** Output:Meter: invalid Key Name="WATERSYSTEMS:NATURALGAS" - not found.
   ** Warning ** Output:Meter: invalid Key Name="PROPANE:FACILITY" - not found.
   ** Warning ** Output:Meter: invalid Key Name="HEATING:PROPANE" - not found.
   ************* Testing Individual Branch Integrity
   ************* All Branches passed integrity testing
   ************* Testing Individual Supply Air Path Integrity
   ************* All Supply Air Paths passed integrity testing
   ************* Testing Individual Return Air Path Integrity
   ************* All Return Air Paths passed integrity testing
   ************* No node connection errors were found.
   ************* Beginning Simulation
   ** Warning ** AirflowNetwork::Solver::validate_distribution: Heat pump water heater is simulated along with an AirflowNetwork but is not included in the AirflowNetwork.
   ** Severe  ** CheckWarmupConvergence: Loads Initialization, Zone="LIVING" did not converge after 25 warmup days.
   **   ~~~   ** See Warmup Convergence Information in .eio file for details.
   **   ~~~   ** ...Environment(SizingPeriod)="EXTREME_WINTER"
   **   ~~~   ** ..Max Temp Comparison = 3.31E-003 vs Temperature Convergence Tolerance=5.00E-002 - Pass Convergence
   **   ~~~   ** ..Min Temp Comparison = 3.44E-002 vs Temperature Convergence Tolerance=5.00E-002 - Pass Convergence
   **   ~~~   ** ..Max Heat Load Comparison = 0.1140 vs Loads Convergence Tolerance=5.00E-002 - Fail Convergence
   **   ~~~   ** ..Max Cool Load Comparison = 1.9644E-004 vs Loads Convergence Tolerance=5.00E-002 - Pass Convergence
   ** Severe  ** CheckWarmupConvergence: Loads Initialization, Zone="ATTIC" did not converge after 25 warmup days.
   **   ~~~   ** ...Environment(SizingPeriod)="EXTREME_WINTER"
   **   ~~~   ** ..Max Temp Comparison = 3.17E-002 vs Temperature Convergence Tolerance=5.00E-002 - Pass Convergence
   **   ~~~   ** ..Min Temp Comparison = 0.11 vs Temperature Convergence Tolerance=5.00E-002 - Fail Convergence
   **   ~~~   ** ..Max Heat Load Comparison = 0.0000 vs Loads Convergence Tolerance=5.00E-002 - Pass Convergence
   **   ~~~   ** ..Max Cool Load Comparison = 0.0000 vs Loads Convergence Tolerance=5.00E-002 - Pass Convergence
   ** Warning ** CalcEquipmentFlowRates: "TOTAL HOT WATER LOAD" - Target water temperature is greater than the hot water temperature by (1.03 C)
   **   ~~~   **  Environment=EXTREME_WINTER, at Simulation time=12/22 06:45 - 07:00
   **   ~~~   ** ...target water temperature     = 53.33 C
   **   ~~~   ** ...hot water temperature        = 52.31 C
   **   ~~~   ** ...Target water temperature should be less than or equal to the hot water temperature. Verify temperature setpoints and schedules.
   ** Warning ** SimHVAC: Maximum iterations (20) exceeded for all HVAC loops, at EXTREME_WINTER, 01/03 15:35 - 15:40
   **   ~~~   ** The solution for one or more of the Air Loop HVAC systems did not appear to converge
   **   ~~~   ** Air System Named = CENTRAL SYSTEM did not converge for mass flow rate
   **   ~~~   ** Check values should be zero. Most Recent values listed first.
   **   ~~~   ** Demand-to-Supply interface mass flow rate check value iteration history trace: 4.627536E-002,4.627536E-002,4.627536E-002,4.627536E-002,4.627536E-002,4.627536E-002,4.627536E-002,4.627536E-002,4.627536E-002,4.627536E-002,
   **   ~~~   ** Supply-to-demand interface deck 1 mass flow rate check value iteration history trace: 4.627536E-002,4.627536E-002,4.627536E-002,4.627536E-002,4.627536E-002,4.627536E-002,4.627536E-002,4.627536E-002,4.627536E-002,4.627536E-002,
   **   ~~~   ** Air System Named = CENTRAL SYSTEM did not converge for energy
   **   ~~~   ** Check values should be zero. Most Recent values listed first.
   **   ~~~   ** Demand-to-Supply interface energy check value iteration history trace: 912.231545,912.231545,912.231545,912.231545,912.231545,912.231545,912.231545,912.231545,912.231545,912.231545,
   **   ~~~   ** Supply-to-demand interface deck 1 energy check value iteration history trace: 1506.137363,1506.137363,1506.137363,1506.137363,1506.137363,1506.137363,1506.137363,1506.137362,1506.137362,1506.137362,
   ** Warning ** SimHVAC: Maximum iterations (20) exceeded for all HVAC loops, at ANNUAL, 01/13 15:00 - 15:05
   **   ~~~   ** The solution for one or more of the Air Loop HVAC systems did not appear to converge
   **   ~~~   ** Air System Named = CENTRAL SYSTEM did not converge for mass flow rate
   **   ~~~   ** Check values should be zero. Most Recent values listed first.
   **   ~~~   ** Demand-to-Supply interface mass flow rate check value iteration history trace: 4.551714E-002,4.551714E-002,4.551714E-002,4.551714E-002,4.551714E-002,4.551714E-002,4.551714E-002,4.551714E-002,4.551714E-002,4.551714E-002,
   **   ~~~   ** Supply-to-demand interface deck 1 mass flow rate check value iteration history trace: 4.551714E-002,4.551714E-002,4.551714E-002,4.551714E-002,4.551714E-002,4.551714E-002,4.551714E-002,4.551714E-002,4.551714E-002,4.551714E-002,
   **   ~~~   ** Air System Named = CENTRAL SYSTEM did not converge for energy
   **   ~~~   ** Check values should be zero. Most Recent values listed first.
   **   ~~~   ** Demand-to-Supply interface energy check value iteration history trace: 893.037780,893.037780,893.037780,893.037780,893.037780,893.037780,893.037780,893.037780,893.037780,893.037780,
   **   ~~~   ** Supply-to-demand interface deck 1 energy check value iteration history trace: 1527.369886,1527.369885,1527.369885,1527.369885,1527.369885,1527.369885,1527.369885,1527.369885,1527.369885,1527.369885,
   ** Warning ** SimHVAC: Maximum iterations (20) exceeded for all HVAC loops, at ANNUAL, 01/26 14:00 - 14:15
   **   ~~~   ** The solution for one or more of the Air Loop HVAC systems did not appear to converge
   **   ~~~   ** Air System Named = CENTRAL SYSTEM did not converge for mass flow rate
   **   ~~~   ** Check values should be zero. Most Recent values listed first.
   **   ~~~   ** Demand-to-Supply interface mass flow rate check value iteration history trace: 5.532286E-002,5.532286E-002,5.532286E-002,5.532286E-002,5.532286E-002,5.532286E-002,5.532286E-002,5.532286E-002,5.532286E-002,5.532286E-002,
   **   ~~~   ** Supply-to-demand interface deck 1 mass flow rate check value iteration history trace: 5.532286E-002,5.532286E-002,5.532286E-002,5.532286E-002,5.532286E-002,5.532286E-002,5.532286E-002,5.532286E-002,5.532286E-002,5.532286E-002,
   **   ~~~   ** Air System Named = CENTRAL SYSTEM did not converge for energy
   **   ~~~   ** Check values should be zero. Most Recent values listed first.
   **   ~~~   ** Demand-to-Supply interface energy check value iteration history trace: 1093.786836,1093.786836,1093.786836,1093.786836,1093.786836,1093.786836,1093.786836,1093.786836,1093.786836,1093.786836,
   **   ~~~   ** Supply-to-demand interface deck 1 energy check value iteration history trace: 1780.795617,1780.795617,1780.795617,1780.795617,1780.795617,1780.795617,1780.795617,1780.795617,1780.795616,1780.795616,
   ** Warning ** SimHVAC: Maximum iterations (20) exceeded for all HVAC loops, at ANNUAL, 01/28 12:30 - 12:34
   **   ~~~   ** The solution for one or more of the Air Loop HVAC systems did not appear to converge
   **   ~~~   ** Air System Named = CENTRAL SYSTEM did not converge for mass flow rate
   **   ~~~   ** Check values should be zero. Most Recent values listed first.
   **   ~~~   ** Demand-to-Supply interface mass flow rate check value iteration history trace: 6.287182E-002,6.287182E-002,6.287182E-002,6.287182E-002,6.287182E-002,6.287182E-002,6.287182E-002,6.287182E-002,6.287182E-002,6.287182E-002,
   **   ~~~   ** Supply-to-demand interface deck 1 mass flow rate check value iteration history trace: 6.287182E-002,6.287182E-002,6.287182E-002,6.287182E-002,6.287182E-002,6.287182E-002,6.287182E-002,6.287182E-002,6.287182E-002,6.287182E-002,
   **   ~~~   ** Air System Named = CENTRAL SYSTEM did not converge for energy
   **   ~~~   ** Check values should be zero. Most Recent values listed first.
   **   ~~~   ** Demand-to-Supply interface energy check value iteration history trace: 1245.921895,1245.921895,1245.921895,1245.921894,1245.921894,1245.921894,1245.921894,1245.921894,1245.921894,1245.921894,
   **   ~~~   ** Supply-to-demand interface deck 1 energy check value iteration history trace: 2108.543714,2108.543714,2108.543714,2108.543714,2108.543714,2108.543714,2108.543714,2108.543714,2108.543714,2108.543714,
   ** Warning ** SimHVAC: Maximum iterations (20) exceeded for all HVAC loops, at ANNUAL, 02/03 22:04 - 22:08
   **   ~~~   ** The solution for one or more of the Air Loop HVAC systems did not appear to converge
   **   ~~~   ** Air System Named = CENTRAL SYSTEM did not converge for mass flow rate
   **   ~~~   ** Check values should be zero. Most Recent values listed first.
   **   ~~~   ** Demand-to-Supply interface mass flow rate check value iteration history trace: 7.121631E-002,7.121631E-002,7.121631E-002,7.121631E-002,7.121631E-002,7.121631E-002,7.121631E-002,7.121631E-002,7.121631E-002,7.121631E-002,
   **   ~~~   ** Supply-to-demand interface deck 1 mass flow rate check value iteration history trace: 7.121631E-002,7.121631E-002,7.121631E-002,7.121631E-002,7.121631E-002,7.121631E-002,7.121631E-002,7.121631E-002,7.121631E-002,7.121631E-002,
   **   ~~~   ** Air System Named = CENTRAL SYSTEM did not converge for energy
   **   ~~~   ** Check values should be zero. Most Recent values listed first.
   **   ~~~   ** Demand-to-Supply interface energy check value iteration history trace: 1372.996187,1372.996187,1372.996187,1372.996187,1372.996186,1372.996186,1372.996186,1372.996186,1372.996186,1372.996186,
   **   ~~~   ** Supply-to-demand interface deck 1 energy check value iteration history trace: 2143.775237,2143.775237,2143.775237,2143.775237,2143.775236,2143.775236,2143.775236,2143.775236,2143.775236,2143.775236,
   ** Warning ** CalcDoe2DXCoil: Coil:Cooling:DX:SingleSpeed "DX_COOLING_COIL" - Full load outlet air dry-bulb temperature < 2C. This indicates the possibility of coil frost/freeze. Outlet temperature = 1.87 C.
   **   ~~~   **  ...Occurrence info = ANNUAL, 02/04 16:19 - 16:22
   **   ~~~   ** ... Possible reasons for low outlet air dry-bulb temperatures are: This DX coil
   **   ~~~   **    1) may have a low inlet air dry-bulb temperature. Inlet air temperature = 22.866 C.
   **   ~~~   **    2) may have a low air flow rate per watt of cooling capacity. Check inputs.
   **   ~~~   **    3) is used as part of a HX assisted cooling coil which uses a high sensible effectiveness. Check inputs.
   ** Warning ** SimHVAC: Maximum iterations (20) exceeded for all HVAC loops, at ANNUAL, 02/04 19:30 - 19:45
   **   ~~~   ** The solution for one or more of the Air Loop HVAC systems did not appear to converge
   **   ~~~   ** Air System Named = CENTRAL SYSTEM did not converge for mass flow rate
   **   ~~~   ** Check values should be zero. Most Recent values listed first.
   **   ~~~   ** Demand-to-Supply interface mass flow rate check value iteration history trace: 8.113166E-002,8.113166E-002,8.113166E-002,8.113166E-002,8.113166E-002,8.113166E-002,8.113166E-002,8.113166E-002,8.113166E-002,8.113166E-002,
   **   ~~~   ** Supply-to-demand interface deck 1 mass flow rate check value iteration history trace: 8.113166E-002,8.113166E-002,8.113166E-002,8.113166E-002,8.113166E-002,8.113166E-002,8.113166E-002,8.113166E-002,8.113166E-002,8.113166E-002,
   **   ~~~   ** Air System Named = CENTRAL SYSTEM did not converge for energy
   **   ~~~   ** Check values should be zero. Most Recent values listed first.
   **   ~~~   ** Demand-to-Supply interface energy check value iteration history trace: 1598.399914,1598.399914,1598.399913,1598.399913,1598.399913,1598.399913,1598.399913,1598.399913,1598.399913,1598.399913,
   **   ~~~   ** Supply-to-demand interface deck 1 energy check value iteration history trace: 2486.556082,2486.556082,2486.556082,2486.556082,2486.556082,2486.556082,2486.556081,2486.556081,2486.556081,2486.556081,
   ** Warning ** SimHVAC: Maximum iterations (20) exceeded for all HVAC loops, at ANNUAL, 03/12 10:45 - 10:50
   **   ~~~   ** The solution for one or more of the Air Loop HVAC systems did not appear to converge
   **   ~~~   ** Air System Named = CENTRAL SYSTEM did not converge for mass flow rate
   **   ~~~   ** Check values should be zero. Most Recent values listed first.
   **   ~~~   ** Demand-to-Supply interface mass flow rate check value iteration history trace: 4.179210E-002,4.179210E-002,4.179210E-002,4.179210E-002,4.179210E-002,4.179210E-002,4.179210E-002,4.179210E-002,4.179210E-002,4.179210E-002,
   **   ~~~   ** Supply-to-demand interface deck 1 mass flow rate check value iteration history trace: 4.179210E-002,4.179210E-002,4.179210E-002,4.179210E-002,4.179210E-002,4.179210E-002,4.179210E-002,4.179210E-002,4.179210E-002,4.179210E-002,
   **   ~~~   ** Air System Named = CENTRAL SYSTEM did not converge for energy
   **   ~~~   ** Check values should be zero. Most Recent values listed first.
   **   ~~~   ** Demand-to-Supply interface energy check value iteration history trace: 828.205178,828.205178,828.205178,828.205178,828.205178,828.205178,828.205178,828.205178,828.205178,828.205178,
   **   ~~~   ** Supply-to-demand interface deck 1 energy check value iteration history trace: 1590.823427,1590.823427,1590.823427,1590.823427,1590.823426,1590.823426,1590.823426,1590.823426,1590.823426,1590.823426,
   ** Warning ** SimHVAC: Maximum iterations (20) exceeded for all HVAC loops, at ANNUAL, 03/12 20:00 - 20:15
   **   ~~~   ** The solution for one or more of the Air Loop HVAC systems did not appear to converge
   **   ~~~   ** Air System Named = CENTRAL SYSTEM did not converge for mass flow rate
   **   ~~~   ** Check values should be zero. Most Recent values listed first.
   **   ~~~   ** Demand-to-Supply interface mass flow rate check value iteration history trace: 6.850486E-002,6.850486E-002,6.850486E-002,6.850486E-002,6.850486E-002,6.850486E-002,6.850486E-002,6.850486E-002,6.850486E-002,6.850486E-002,
   **   ~~~   ** Supply-to-demand interface deck 1 mass flow rate check value iteration history trace: 6.850486E-002,6.850486E-002,6.850486E-002,6.850486E-002,6.850486E-002,6.850486E-002,6.850486E-002,6.850486E-002,6.850486E-002,6.850486E-002,
   **   ~~~   ** Air System Named = CENTRAL SYSTEM did not converge for energy
   **   ~~~   ** Check values should be zero. Most Recent values listed first.
   **   ~~~   ** Demand-to-Supply interface energy check value iteration history trace: 1357.161660,1357.161660,1357.161660,1357.161660,1357.161659,1357.161659,1357.161659,1357.161659,1357.161659,1357.161659,
   **   ~~~   ** Supply-to-demand interface deck 1 energy check value iteration history trace: 2312.178223,2312.178223,2312.178223,2312.178223,2312.178223,2312.178223,2312.178222,2312.178222,2312.178222,2312.178222,
   ** Warning ** SimHVAC: Maximum iterations (20) exceeded for all HVAC loops, at ANNUAL, 03/19 18:45 - 19:00
   **   ~~~   ** The solution for one or more of the Air Loop HVAC systems did not appear to converge
   **   ~~~   ** Air System Named = CENTRAL SYSTEM did not converge for mass flow rate
   **   ~~~   ** Check values should be zero. Most Recent values listed first.
   **   ~~~   ** Demand-to-Supply interface mass flow rate check value iteration history trace: 5.450589E-002,5.450589E-002,5.450589E-002,5.450589E-002,5.450589E-002,5.450589E-002,5.450589E-002,5.450589E-002,5.450589E-002,5.450589E-002,
   **   ~~~   ** Supply-to-demand interface deck 1 mass flow rate check value iteration history trace: 5.450589E-002,5.450589E-002,5.450589E-002,5.450589E-002,5.450589E-002,5.450589E-002,5.450589E-002,5.450589E-002,5.450589E-002,5.450589E-002,
   **   ~~~   ** Air System Named = CENTRAL SYSTEM did not converge for energy
   **   ~~~   ** Check values should be zero. Most Recent values listed first.
   **   ~~~   ** Demand-to-Supply interface energy check value iteration history trace: 1079.592563,1079.592563,1079.592562,1079.592562,1079.592562,1079.592562,1079.592562,1079.592562,1079.592562,1079.592562,
   **   ~~~   ** Supply-to-demand interface deck 1 energy check value iteration history trace: 1786.429848,1786.429848,1786.429848,1786.429848,1786.429848,1786.429848,1786.429848,1786.429848,1786.429847,1786.429847,
   ** Warning ** Temperature out of range [-100. to 200.] (PsyPsatFnTemp)
   **   ~~~   **  Routine=PsyTwbFnTdbWPb, Environment=ANNUAL, at Simulation time=03/24 15:41 - 15:45
   **   ~~~   **  Input Temperature=-111.83
   ** Warning ** SimHVAC: Maximum iterations (20) exceeded for all HVAC loops, at ANNUAL, 04/02 18:00 - 18:04
   **   ~~~   ** The solution for one or more of the Air Loop HVAC systems did not appear to converge
   **   ~~~   ** Air System Named = CENTRAL SYSTEM did not converge for mass flow rate
   **   ~~~   ** Check values should be zero. Most Recent values listed first.
   **   ~~~   ** Demand-to-Supply interface mass flow rate check value iteration history trace: 6.431726E-002,6.431726E-002,6.431726E-002,6.431726E-002,6.431726E-002,6.431726E-002,6.431726E-002,6.431726E-002,6.431726E-002,6.431726E-002,
   **   ~~~   ** Supply-to-demand interface deck 1 mass flow rate check value iteration history trace: 6.431726E-002,6.431726E-002,6.431726E-002,6.431726E-002,6.431726E-002,6.431726E-002,6.431726E-002,6.431726E-002,6.431726E-002,6.431726E-002,
   **   ~~~   ** Air System Named = CENTRAL SYSTEM did not converge for energy
   **   ~~~   ** Check values should be zero. Most Recent values listed first.
   **   ~~~   ** Demand-to-Supply interface energy check value iteration history trace: 1271.815126,1271.815126,1271.815126,1271.815126,1271.815126,1271.815126,1271.815126,1271.815126,1271.815126,1271.815126,
   **   ~~~   ** Supply-to-demand interface deck 1 energy check value iteration history trace: 2081.752044,2081.752044,2081.752044,2081.752044,2081.752044,2081.752044,2081.752044,2081.752044,2081.752043,2081.752043,
   ** Warning ** SimHVAC: Maximum iterations (20) exceeded for all HVAC loops, at ANNUAL, 04/10 08:00 - 08:02
   **   ~~~   ** The solution for one or more of the Air Loop HVAC systems did not appear to converge
   **   ~~~   ** Air System Named = CENTRAL SYSTEM did not converge for mass flow rate
   **   ~~~   ** Check values should be zero. Most Recent values listed first.
   **   ~~~   ** Demand-to-Supply interface mass flow rate check value iteration history trace: 5.322470E-002,5.322470E-002,5.322470E-002,5.322470E-002,5.322470E-002,5.322470E-002,5.322470E-002,5.322470E-002,5.322470E-002,5.322470E-002,
   **   ~~~   ** Supply-to-demand interface deck 1 mass flow rate check value iteration history trace: 5.322470E-002,5.322470E-002,5.322470E-002,5.322470E-002,5.322470E-002,5.322470E-002,5.322470E-002,5.322470E-002,5.322470E-002,5.322470E-002,
   **   ~~~   ** Air System Named = CENTRAL SYSTEM did not converge for energy
   **   ~~~   ** Check values should be zero. Most Recent values listed first.
   **   ~~~   ** Demand-to-Supply interface energy check value iteration history trace: 1054.733824,1054.733823,1054.733823,1054.733823,1054.733823,1054.733823,1054.733823,1054.733823,1054.733823,1054.733823,
   **   ~~~   ** Supply-to-demand interface deck 1 energy check value iteration history trace: 2061.948458,2061.948458,2061.948458,2061.948458,2061.948458,2061.948458,2061.948458,2061.948458,2061.948458,2061.948458,
   ** Warning ** SimHVAC: Maximum iterations (20) exceeded for all HVAC loops, at ANNUAL, 04/16 08:45 - 09:00
   **   ~~~   ** The solution for one or more of the Air Loop HVAC systems did not appear to converge
   **   ~~~   ** Air System Named = CENTRAL SYSTEM did not converge for mass flow rate
   **   ~~~   ** Check values should be zero. Most Recent values listed first.
   **   ~~~   ** Demand-to-Supply interface mass flow rate check value iteration history trace: 6.479937E-002,6.479937E-002,6.479937E-002,6.479937E-002,6.479937E-002,6.479937E-002,6.479937E-002,6.479937E-002,6.479937E-002,6.479937E-002,
   **   ~~~   ** Supply-to-demand interface deck 1 mass flow rate check value iteration history trace: 6.479937E-002,6.479937E-002,6.479937E-002,6.479937E-002,6.479937E-002,6.479937E-002,6.479937E-002,6.479937E-002,6.479937E-002,6.479937E-002,
   **   ~~~   ** Air System Named = CENTRAL SYSTEM did not converge for energy
   **   ~~~   ** Check values should be zero. Most Recent values listed first.
   **   ~~~   ** Demand-to-Supply interface energy check value iteration history trace: 1275.597820,1275.597820,1275.597820,1275.597819,1275.597819,1275.597819,1275.597819,1275.597819,1275.597819,1275.597819,
   **   ~~~   ** Supply-to-demand interface deck 1 energy check value iteration history trace: 2244.412405,2244.412405,2244.412405,2244.412404,2244.412404,2244.412404,2244.412404,2244.412404,2244.412404,2244.412404,
   ** Warning ** SimHVAC: Maximum iterations (20) exceeded for all HVAC loops, at ANNUAL, 04/18 08:00 - 08:02
   **   ~~~   ** The solution for one or more of the Air Loop HVAC systems did not appear to converge
   **   ~~~   ** Air System Named = CENTRAL SYSTEM did not converge for mass flow rate
   **   ~~~   ** Check values should be zero. Most Recent values listed first.
   **   ~~~   ** Demand-to-Supply interface mass flow rate check value iteration history trace: 4.079047E-002,4.079047E-002,4.079047E-002,4.079047E-002,4.079047E-002,4.079047E-002,4.079047E-002,4.079047E-002,4.079047E-002,4.079047E-002,
   **   ~~~   ** Supply-to-demand interface deck 1 mass flow rate check value iteration history trace: 4.079047E-002,4.079047E-002,4.079047E-002,4.079047E-002,4.079047E-002,4.079047E-002,4.079047E-002,4.079047E-002,4.079047E-002,4.079047E-002,
   **   ~~~   ** Air System Named = CENTRAL SYSTEM did not converge for energy
   **   ~~~   ** Check values should be zero. Most Recent values listed first.
   **   ~~~   ** Demand-to-Supply interface energy check value iteration history trace: 808.342655,808.342655,808.342655,808.342655,808.342655,808.342655,808.342655,808.342655,808.342655,808.342655,
   **   ~~~   ** Supply-to-demand interface deck 1 energy check value iteration history trace: 1630.284638,1630.284638,1630.284638,1630.284638,1630.284638,1630.284638,1630.284638,1630.284638,1630.284638,1630.284638,
   ** Warning ** SimHVAC: Maximum iterations (20) exceeded for all HVAC loops, at ANNUAL, 04/19 10:53 - 10:55
   **   ~~~   ** The solution for one or more of the Air Loop HVAC systems did not appear to converge
   **   ~~~   ** Air System Named = CENTRAL SYSTEM did not converge for mass flow rate
   **   ~~~   ** Check values should be zero. Most Recent values listed first.
   **   ~~~   ** Demand-to-Supply interface mass flow rate check value iteration history trace: 4.178806E-002,4.178806E-002,4.178806E-002,4.178806E-002,4.178806E-002,4.178806E-002,4.178806E-002,4.178806E-002,4.178806E-002,4.178806E-002,
   **   ~~~   ** Supply-to-demand interface deck 1 mass flow rate check value iteration history trace: 4.178806E-002,4.178806E-002,4.178806E-002,4.178806E-002,4.178806E-002,4.178806E-002,4.178806E-002,4.178806E-002,4.178806E-002,4.178806E-002,
   **   ~~~   ** Air System Named = CENTRAL SYSTEM did not converge for energy
   **   ~~~   ** Check values should be zero. Most Recent values listed first.
   **   ~~~   ** Demand-to-Supply interface energy check value iteration history trace: 822.940079,822.940079,822.940079,822.940079,822.940079,822.940079,822.940079,822.940079,822.940079,822.940079,
   **   ~~~   ** Supply-to-demand interface deck 1 energy check value iteration history trace: 1690.915921,1690.915921,1690.915921,1690.915921,1690.915921,1690.915921,1690.915921,1690.915921,1690.915921,1690.915921,
   ************* Simulation Error Summary *************
   ** Warning ** The following Report Variables were requested but not generated -- check.rdd file
   **   ~~~   ** Either the IDF did not contain these elements, the variable name is misspelled,
   **   ~~~   ** or the requested variable is an advanced output which requires Output : Diagnostics, DisplayAdvancedReportVariables;
   ************* Key=*, VarName=BASEBOARD TOTAL HEATING ENERGY, Frequency=
   ************* Key=*, VarName=WATER HEATER NATURALGAS ENERGY, Frequency=
   ************* Key=*, VarName=COOLING COIL TOTAL HEATING ENERGY, Frequency=
   ************* There are 34 unused schedules in input.
   ************* There are 388 unused week schedules in input.
   ************* There are 397 unused day schedules in input.
   ************* Use Output:Diagnostics,DisplayUnusedSchedules; to see them.
   *************
   ************* ===== Recurring Error Summary =====
   ************* The following recurring error messages occurred.
   *************
   *************  ** Warning ** "TOTAL HOT WATER LOAD" - Target water temperature should be less than or equal to the hot water temperature error continues...
   *************  **   ~~~   **   This error occurred 134991 total times;
   *************  **   ~~~   **   during Warmup 0 times;
   *************  **   ~~~   **   during Sizing 0 times.
   *************  **   ~~~   **   Max=9.880747  Min=3.157483E-004
   *************
   *************  ** Warning ** CalcDoe2DXCoil: Coil:Cooling:DX:SingleSpeed="DX_COOLING_COIL" - Full load outlet temperature indicates a possibility of frost/freeze error continues. Outlet air temperature statistics follow:
   *************  **   ~~~   **   This error occurred 33 total times;
   *************  **   ~~~   **   during Warmup 0 times;
   *************  **   ~~~   **   during Sizing 0 times.
   *************  **   ~~~   **   Max=1.937261  Min=1.618354
   *************
   *************  ** Warning ** Temperature out of range [-100. to 200.] (PsyPsatFnTemp)
   *************  **   ~~~   **   This error occurred 364 total times;
   *************  **   ~~~   **   during Warmup 0 times;
   *************  **   ~~~   **   during Sizing 0 times.
   *************  **   ~~~   **   Max=-100.691273 C  Min=-33540.634766 C
   *************
   *************  ** Warning ** SimHVAC: Exceeding Maximum iterations for all HVAC loops, during ANNUAL continues
   *************  **   ~~~   **   This error occurred 20 total times;
   *************  **   ~~~   **   during Warmup 0 times;
   *************  **   ~~~   **   during Sizing 0 times.
   *************
   *************
   ************* ===== Final Error Summary =====
   ************* The following error categories occurred.  Consider correcting or noting.
   ************* Loads Initialization did not Converge
   ************* ..1) very high thermal mass such as very thick concrete (solution: increase max number of warmup
   ************* ..   days in the BUILDING object);
   ************* ..2) moderate mass and inadequate space conditioning such that the building keeps getting warmer
   ************* ..   and warmer on successive days (solution: add HVAC, check building thermal properties,
   ************* ..   check if infiltration is included, make sure HVAC properly controlled);
   ************* ..3) a soil layer modeled below the concrete slab - (solution remove this layer and read about
   ************* ..   ground temperatures in the Auxiliary Programs document).
   ************* ..4) unreasonable (too small) limits in the BUILDING object for temperature (.4 default) or
   ************* ..   loads tolerances (.04 default)
   ************* Nominally Unused Constructions
   ************* ..The nominally unused constructions warning is provided to alert you to potential conditions that can cause
   ************* ..extra time during simulation. Each construction is calculated by the algorithm indicated in the HeatBalanceAlgorithm
   ************* ..object. You may remove the constructions indicated (when you use the DisplayExtraWarnings option).
   *************
   ************* EnergyPlus Warmup Error Summary. During Warmup: 1 Warning; 2 Severe Errors.
   ************* EnergyPlus Sizing Error Summary. During Sizing: 4 Warning; 0 Severe Errors.
   ************* EnergyPlus Completed Successfully-- 135441 Warning; 2 Severe Errors; Elapsed Time=00hr 01min 52.39sec
