Program Version,EnergyPlus, Version 22.2.0-c249759bad, YMD=2023.09.01 20:03,
   ************* Beginning Zone Sizing Calculations
   ** Warning ** ProcessScheduleInput: Schedule:Constant="ALWAYS ON DISCRETE", Schedule Type Limits Name="ONOFF" not found -- will not be validated
   ** Warning ** Foundation:Kiva="KIVA FOUNDATION", no Interior Horizontal Insulation Material Name defined
   **   ~~~   ** Interior Horizontal Insulation Depth will not be used.
   ** Warning ** CheckUsedConstructions: There are 15 nominally unused constructions in input.
   **   ~~~   ** Each Unused construction is shown.
   ************* Construction=INTERIOR FLOOR
   ************* Construction=INTERIOR WINDOW
   ************* Construction=EXTERIOR DOOR
   ************* Construction=INTERIOR DOOR
   ************* Construction=GABLE CONSTRUCTION
   ************* Construction=CRAWL_FLOOR
   ************* Construction=INSULATED PIPE
   ************* Construction=PLAIN PIPE
   ************* Construction=TDD PIPE
   ************* Construction=TDD DOME
   ************* Construction=TDD DIFFUSER
   ************* Construction=CRAWL WALL
   ************* Construction=CEILING-FLOOR-LAYER
   ************* Construction=SLAB CONSTRUCTION W FULL R10 INSULATION
   ************* Construction=SLAB CONSTRUCTION W FULL R5 INSULATION
   ** Warning ** GetDXCoils: Coil:Heating:DX:SingleSpeed="DX_HEATING_COIL" curve values
   **   ~~~   ** ... Defrost Energy Input Ratio Function of Temperature Curve Name = DEFROSTEIR output is not equal to 1.0 (+ or - 10%) at rated conditions.
   **   ~~~   ** ... Curve output at rated conditions = 0.152
   ************* Beginning System Sizing Calculations
   ************* Beginning Plant Sizing Calculations
   ** Warning ** SizeDXCoil Coil:Cooling:DX:SingleSpeed DX_COOLING_COIL
   **   ~~~   ** ...Gross Rated Total Cooling Capacity [W] will be limited by the maximum rated volume flow per rated total capacity ratio.
   **   ~~~   ** ...DX coil volume flow rate ( m3/s ) = 0.440034
   **   ~~~   ** ...Requested capacity ( W ) = 6924.405
   **   ~~~   ** ...Requested flow/capacity ratio ( m3/s/W ) = 6.354E-005
   **   ~~~   ** ...Maximum flow/capacity ratio ( m3/s/W ) = 6.041E-005
   **   ~~~   ** ...Adjusted capacity ( W ) = 7284.132
   ** Warning ** Coil:WaterHeating:AirToWaterHeatPump:Wrapped "HEAT PUMP WATER HEATER EVAPORATOR": Rated air volume flow rate per watt of rated total water heating capacity is out of range
   **   ~~~   ** Min Rated Vol Flow Per Watt=[4.027E-005], Rated Vol Flow Per Watt=[1.510E-004], Max Rated Vol Flow Per Watt=[8.056E-005]. See Input-Output Reference Manual for valid range.
   ************* SizeFan: : Potential issue with equipment sizing for Fan:OnOff HEAT PUMP WATER HEATER FAN
   **   ~~~   ** User-Specified Maximum Flow Rate [m3/s] = 0.22653
   **   ~~~   ** differs from Design Size Maximum Flow Rate [m3/s] = 7.55250E-002
   **   ~~~   ** This may, or may not, indicate mismatched component sizes.
   **   ~~~   ** Verify that the value entered is intended and is consistent with other components.
   ** Warning ** Water heater = WATER HEATER TANK:  Recovery Efficiency and Energy Factor could not be calculated during the test for standard ratings
   **   ~~~   ** Setpoint was never recovered and/or heater never turned on
   ** Warning ** Check input. Pump nominal power or motor efficiency is set to 0, for pump=MAINS PRESSURE
   ** Warning ** Output:Meter: invalid Key Name="ELECTRIC_RANGE:INTERIOREQUIPMENT:ELECTRICITY" - not found.
   ** Warning ** Output:Meter: invalid Key Name="ELECTRIC_DRYER:INTERIOREQUIPMENT:ELECTRICITY" - not found.
   ** Warning ** Output:Meter: invalid Key Name="HEATRECOVERY:ELECTRICITY" - not found.
   ** Warning ** Output:Meter: invalid Key Name="HEATING:NATURALGAS" - not found.
   ** Warning ** Output:Meter: invalid Key Name="WATERSYSTEMS:NATURALGAS" - not found.
   ** Warning ** Output:Meter: invalid Key Name="PROPANE:FACILITY" - not found.
   ** Warning ** Output:Meter: invalid Key Name="HEATING:PROPANE" - not found.
   ************* Testing Individual Branch Integrity
   ************* All Branches passed integrity testing
   ************* Testing Individual Supply Air Path Integrity
   ************* All Supply Air Paths passed integrity testing
   ************* Testing Individual Return Air Path Integrity
   ************* All Return Air Paths passed integrity testing
   ************* No node connection errors were found.
   ************* Beginning Simulation
   ** Warning ** AirflowNetwork::Solver::validate_distribution: Heat pump water heater is simulated along with an AirflowNetwork but is not included in the AirflowNetwork.
   ** Warning ** CalcEquipmentFlowRates: "TOTAL HOT WATER LOAD" - Target water temperature is greater than the hot water temperature by (3.95 C)
   **   ~~~   **  Environment=EXTREME_WINTER, at Simulation time=01/06 07:00 - 07:15
   **   ~~~   ** ...target water temperature     = 53.33 C
   **   ~~~   ** ...hot water temperature        = 49.38 C
   **   ~~~   ** ...Target water temperature should be less than or equal to the hot water temperature. Verify temperature setpoints and schedules.
   ** Warning ** SimHVAC: Maximum iterations (20) exceeded for all HVAC loops, at ANNUAL, 01/14 18:19 - 18:22
   **   ~~~   ** The solution for one or more of the Air Loop HVAC systems did not appear to converge
   **   ~~~   ** Air System Named = CENTRAL SYSTEM did not converge for mass flow rate
   **   ~~~   ** Check values should be zero. Most Recent values listed first.
   **   ~~~   ** Demand-to-Supply interface mass flow rate check value iteration history trace: 8.931913E-002,8.931913E-002,8.931913E-002,8.931913E-002,8.931913E-002,8.931913E-002,8.931913E-002,8.931913E-002,8.931913E-002,8.931913E-002,
   **   ~~~   ** Supply-to-demand interface deck 1 mass flow rate check value iteration history trace: 8.931913E-002,8.931913E-002,8.931913E-002,8.931913E-002,8.931913E-002,8.931913E-002,8.931913E-002,8.931913E-002,8.931913E-002,8.931913E-002,
   **   ~~~   ** Air System Named = CENTRAL SYSTEM did not converge for energy
   **   ~~~   ** Check values should be zero. Most Recent values listed first.
   **   ~~~   ** Demand-to-Supply interface energy check value iteration history trace: 1767.053421,1767.053421,1767.053421,1767.053421,1767.053421,1767.053421,1767.053421,1767.053420,1767.053420,1767.053420,
   **   ~~~   ** Supply-to-demand interface deck 1 energy check value iteration history trace: 2627.552491,2627.552490,2627.552490,2627.552490,2627.552490,2627.552490,2627.552489,2627.552489,2627.552489,2627.552489,
   ** Warning ** SimHVAC: Maximum iterations (20) exceeded for all HVAC loops, at ANNUAL, 01/19 11:24 - 11:26
   **   ~~~   ** The solution for one or more of the Air Loop HVAC systems did not appear to converge
   **   ~~~   ** Air System Named = CENTRAL SYSTEM did not converge for mass flow rate
   **   ~~~   ** Check values should be zero. Most Recent values listed first.
   **   ~~~   ** Demand-to-Supply interface mass flow rate check value iteration history trace: 6.888989E-002,6.888989E-002,6.888989E-002,6.888989E-002,6.888989E-002,6.888989E-002,6.888989E-002,6.888989E-002,6.888989E-002,6.888989E-002,
   **   ~~~   ** Supply-to-demand interface deck 1 mass flow rate check value iteration history trace: 6.888989E-002,6.888989E-002,6.888989E-002,6.888989E-002,6.888989E-002,6.888989E-002,6.888989E-002,6.888989E-002,6.888989E-002,6.888989E-002,
   **   ~~~   ** Air System Named = CENTRAL SYSTEM did not converge for energy
   **   ~~~   ** Check values should be zero. Most Recent values listed first.
   **   ~~~   ** Demand-to-Supply interface energy check value iteration history trace: 1358.909908,1358.909908,1358.909908,1358.909908,1358.909908,1358.909908,1358.909908,1358.909908,1358.909908,1358.909908,
   **   ~~~   ** Supply-to-demand interface deck 1 energy check value iteration history trace: 2369.496201,2369.496201,2369.496201,2369.496201,2369.496201,2369.496201,2369.496200,2369.496200,2369.496200,2369.496200,
   ** Warning ** SimHVAC: Maximum iterations (20) exceeded for all HVAC loops, at ANNUAL, 01/20 10:09 - 10:11
   **   ~~~   ** The solution for one or more of the Air Loop HVAC systems did not appear to converge
   **   ~~~   ** Air System Named = CENTRAL SYSTEM did not converge for mass flow rate
   **   ~~~   ** Check values should be zero. Most Recent values listed first.
   **   ~~~   ** Demand-to-Supply interface mass flow rate check value iteration history trace: 7.890850E-002,7.890850E-002,7.890850E-002,7.890850E-002,7.890850E-002,7.890850E-002,7.890850E-002,7.890850E-002,7.890850E-002,7.890850E-002,
   **   ~~~   ** Supply-to-demand interface deck 1 mass flow rate check value iteration history trace: 7.890850E-002,7.890850E-002,7.890850E-002,7.890850E-002,7.890850E-002,7.890850E-002,7.890850E-002,7.890850E-002,7.890850E-002,7.890850E-002,
   **   ~~~   ** Air System Named = CENTRAL SYSTEM did not converge for energy
   **   ~~~   ** Check values should be zero. Most Recent values listed first.
   **   ~~~   ** Demand-to-Supply interface energy check value iteration history trace: 1564.074771,1564.074771,1564.074771,1564.074771,1564.074771,1564.074771,1564.074771,1564.074771,1564.074771,1564.074770,
   **   ~~~   ** Supply-to-demand interface deck 1 energy check value iteration history trace: 2668.280183,2668.280183,2668.280183,2668.280182,2668.280182,2668.280182,2668.280182,2668.280182,2668.280182,2668.280182,
   ** Warning ** SimHVAC: Maximum iterations (20) exceeded for all HVAC loops, at ANNUAL, 01/31 20:15 - 20:22
   **   ~~~   ** The solution for one or more of the Air Loop HVAC systems did not appear to converge
   **   ~~~   ** Air System Named = CENTRAL SYSTEM did not converge for mass flow rate
   **   ~~~   ** Check values should be zero. Most Recent values listed first.
   **   ~~~   ** Demand-to-Supply interface mass flow rate check value iteration history trace: 9.845501E-002,9.845501E-002,9.845501E-002,9.845501E-002,9.845501E-002,9.845501E-002,9.845501E-002,9.845501E-002,9.845501E-002,9.845501E-002,
   **   ~~~   ** Supply-to-demand interface deck 1 mass flow rate check value iteration history trace: 9.845501E-002,9.845501E-002,9.845501E-002,9.845501E-002,9.845501E-002,9.845501E-002,9.845501E-002,9.845501E-002,9.845501E-002,9.845501E-002,
   **   ~~~   ** Air System Named = CENTRAL SYSTEM did not converge for energy
   **   ~~~   ** Check values should be zero. Most Recent values listed first.
   **   ~~~   ** Demand-to-Supply interface energy check value iteration history trace: 1946.338767,1946.338767,1946.338767,1946.338767,1946.338767,1946.338766,1946.338766,1946.338766,1946.338766,1946.338766,
   **   ~~~   ** Supply-to-demand interface deck 1 energy check value iteration history trace: 3053.949687,3053.949687,3053.949687,3053.949687,3053.949687,3053.949686,3053.949686,3053.949686,3053.949686,3053.949686,
   ** Warning ** SimHVAC: Maximum iterations (20) exceeded for all HVAC loops, at ANNUAL, 02/21 13:34 - 13:36
   **   ~~~   ** The solution for one or more of the Air Loop HVAC systems did not appear to converge
   **   ~~~   ** Air System Named = CENTRAL SYSTEM did not converge for mass flow rate
   **   ~~~   ** Check values should be zero. Most Recent values listed first.
   **   ~~~   ** Demand-to-Supply interface mass flow rate check value iteration history trace: 7.973674E-002,7.973674E-002,7.973674E-002,7.973674E-002,7.973674E-002,7.973674E-002,7.973674E-002,7.973674E-002,7.973674E-002,7.973674E-002,
   **   ~~~   ** Supply-to-demand interface deck 1 mass flow rate check value iteration history trace: 7.973674E-002,7.973674E-002,7.973674E-002,7.973674E-002,7.973674E-002,7.973674E-002,7.973674E-002,7.973674E-002,7.973674E-002,7.973674E-002,
   **   ~~~   ** Air System Named = CENTRAL SYSTEM did not converge for energy
   **   ~~~   ** Check values should be zero. Most Recent values listed first.
   **   ~~~   ** Demand-to-Supply interface energy check value iteration history trace: 1578.299821,1578.299820,1578.299820,1578.299820,1578.299820,1578.299820,1578.299820,1578.299820,1578.299820,1578.299820,
   **   ~~~   ** Supply-to-demand interface deck 1 energy check value iteration history trace: 2448.762643,2448.762643,2448.762643,2448.762642,2448.762642,2448.762642,2448.762642,2448.762642,2448.762642,2448.762641,
   ** Warning ** SimHVAC: Maximum iterations (20) exceeded for all HVAC loops, at ANNUAL, 03/04 10:53 - 11:00
   **   ~~~   ** The solution for one or more of the Air Loop HVAC systems did not appear to converge
   **   ~~~   ** Air System Named = CENTRAL SYSTEM did not converge for mass flow rate
   **   ~~~   ** Check values should be zero. Most Recent values listed first.
   **   ~~~   ** Demand-to-Supply interface mass flow rate check value iteration history trace: 5.460780E-002,5.460780E-002,5.460780E-002,5.460780E-002,5.460780E-002,5.460780E-002,5.460780E-002,5.460780E-002,5.460780E-002,5.460780E-002,
   **   ~~~   ** Supply-to-demand interface deck 1 mass flow rate check value iteration history trace: 5.460780E-002,5.460780E-002,5.460780E-002,5.460780E-002,5.460780E-002,5.460780E-002,5.460780E-002,5.460780E-002,5.460780E-002,5.460780E-002,
   **   ~~~   ** Air System Named = CENTRAL SYSTEM did not converge for energy
   **   ~~~   ** Check values should be zero. Most Recent values listed first.
   **   ~~~   ** Demand-to-Supply interface energy check value iteration history trace: 1074.565884,1074.565884,1074.565884,1074.565884,1074.565884,1074.565884,1074.565884,1074.565884,1074.565884,1074.565884,
   **   ~~~   ** Supply-to-demand interface deck 1 energy check value iteration history trace: 1995.699071,1995.699071,1995.699071,1995.699071,1995.699071,1995.699071,1995.699071,1995.699071,1995.699070,1995.699070,
   ** Warning ** SimHVAC: Maximum iterations (20) exceeded for all HVAC loops, at ANNUAL, 03/11 09:30 - 09:34
   **   ~~~   ** The solution for one or more of the Air Loop HVAC systems did not appear to converge
   **   ~~~   ** Air System Named = CENTRAL SYSTEM did not converge for mass flow rate
   **   ~~~   ** Check values should be zero. Most Recent values listed first.
   **   ~~~   ** Demand-to-Supply interface mass flow rate check value iteration history trace: 9.845181E-002,9.845181E-002,9.845181E-002,9.845181E-002,9.845181E-002,9.845181E-002,9.845181E-002,9.845181E-002,9.845181E-002,9.845181E-002,
   **   ~~~   ** Supply-to-demand interface deck 1 mass flow rate check value iteration history trace: 9.845181E-002,9.845181E-002,9.845181E-002,9.845181E-002,9.845181E-002,9.845181E-002,9.845181E-002,9.845181E-002,9.845181E-002,9.845181E-002,
   **   ~~~   ** Air System Named = CENTRAL SYSTEM did not converge for energy
   **   ~~~   ** Check values should be zero. Most Recent values listed first.
   **   ~~~   ** Demand-to-Supply interface energy check value iteration history trace: 1950.923524,1950.923524,1950.923524,1950.923524,1950.923524,1950.923524,1950.923523,1950.923523,1950.923523,1950.923523,
   **   ~~~   ** Supply-to-demand interface deck 1 energy check value iteration history trace: 3042.223450,3042.223449,3042.223449,3042.223449,3042.223449,3042.223449,3042.223448,3042.223448,3042.223448,3042.223448,
   ** Warning ** SimHVAC: Maximum iterations (20) exceeded for all HVAC loops, at ANNUAL, 03/15 23:30 - 23:45
   **   ~~~   ** The solution for one or more of the Air Loop HVAC systems did not appear to converge
   **   ~~~   ** Air System Named = CENTRAL SYSTEM did not converge for mass flow rate
   **   ~~~   ** Check values should be zero. Most Recent values listed first.
   **   ~~~   ** Demand-to-Supply interface mass flow rate check value iteration history trace: 6.074787E-002,6.074787E-002,6.074787E-002,6.074787E-002,6.074787E-002,6.074787E-002,6.074787E-002,6.074787E-002,6.074787E-002,6.074787E-002,
   **   ~~~   ** Supply-to-demand interface deck 1 mass flow rate check value iteration history trace: 6.074787E-002,6.074787E-002,6.074787E-002,6.074787E-002,6.074787E-002,6.074787E-002,6.074787E-002,6.074787E-002,6.074787E-002,6.074787E-002,
   **   ~~~   ** Air System Named = CENTRAL SYSTEM did not converge for energy
   **   ~~~   ** Check values should be zero. Most Recent values listed first.
   **   ~~~   ** Demand-to-Supply interface energy check value iteration history trace: 1135.088156,1135.088156,1135.088156,1135.088156,1135.088156,1135.088156,1135.088156,1135.088156,1135.088156,1135.088156,
   **   ~~~   ** Supply-to-demand interface deck 1 energy check value iteration history trace: 1957.008939,1957.008939,1957.008939,1957.008939,1957.008939,1957.008939,1957.008939,1957.008938,1957.008938,1957.008938,
   ** Warning ** SimHVAC: Maximum iterations (20) exceeded for all HVAC loops, at ANNUAL, 03/20 08:15 - 08:20
   **   ~~~   ** The solution for one or more of the Air Loop HVAC systems did not appear to converge
   **   ~~~   ** Air System Named = CENTRAL SYSTEM did not converge for mass flow rate
   **   ~~~   ** Check values should be zero. Most Recent values listed first.
   **   ~~~   ** Demand-to-Supply interface mass flow rate check value iteration history trace: 6.123468E-002,6.123468E-002,6.123468E-002,6.123468E-002,6.123468E-002,6.123468E-002,6.123468E-002,6.123468E-002,6.123468E-002,6.123468E-002,
   **   ~~~   ** Supply-to-demand interface deck 1 mass flow rate check value iteration history trace: 6.123468E-002,6.123468E-002,6.123468E-002,6.123468E-002,6.123468E-002,6.123468E-002,6.123468E-002,6.123468E-002,6.123468E-002,6.123468E-002,
   **   ~~~   ** Air System Named = CENTRAL SYSTEM did not converge for energy
   **   ~~~   ** Check values should be zero. Most Recent values listed first.
   **   ~~~   ** Demand-to-Supply interface energy check value iteration history trace: 1207.500800,1207.500800,1207.500800,1207.500799,1207.500799,1207.500799,1207.500799,1207.500799,1207.500799,1207.500799,
   **   ~~~   ** Supply-to-demand interface deck 1 energy check value iteration history trace: 2139.658561,2139.658561,2139.658561,2139.658561,2139.658561,2139.658561,2139.658561,2139.658560,2139.658560,2139.658560,
   ** Warning ** Temperature out of range [-100. to 200.] (PsyPsatFnTemp)
   **   ~~~   **  Routine=PsyTwbFnTdbWPb, Environment=ANNUAL, at Simulation time=03/28 20:15 - 20:19
   **   ~~~   **  Input Temperature=-320.55
   ** Warning ** SimHVAC: Maximum iterations (20) exceeded for all HVAC loops, at ANNUAL, 03/29 11:15 - 11:19
   **   ~~~   ** The solution for one or more of the Air Loop HVAC systems did not appear to converge
   **   ~~~   ** Air System Named = CENTRAL SYSTEM did not converge for mass flow rate
   **   ~~~   ** Check values should be zero. Most Recent values listed first.
   **   ~~~   ** Demand-to-Supply interface mass flow rate check value iteration history trace: 6.557106E-002,6.557106E-002,6.557106E-002,6.557106E-002,6.557106E-002,6.557106E-002,6.557106E-002,6.557106E-002,6.557106E-002,6.557106E-002,
   **   ~~~   ** Supply-to-demand interface deck 1 mass flow rate check value iteration history trace: 6.557106E-002,6.557106E-002,6.557106E-002,6.557106E-002,6.557106E-002,6.557106E-002,6.557106E-002,6.557106E-002,6.557106E-002,6.557106E-002,
   **   ~~~   ** Air System Named = CENTRAL SYSTEM did not converge for energy
   **   ~~~   ** Check values should be zero. Most Recent values listed first.
   **   ~~~   ** Demand-to-Supply interface energy check value iteration history trace: 1295.475904,1295.475904,1295.475904,1295.475904,1295.475904,1295.475904,1295.475904,1295.475904,1295.475904,1295.475904,
   **   ~~~   ** Supply-to-demand interface deck 1 energy check value iteration history trace: 2239.633409,2239.633408,2239.633408,2239.633408,2239.633408,2239.633408,2239.633408,2239.633408,2239.633408,2239.633408,
   ** Warning ** SimHVAC: Maximum iterations (20) exceeded for all HVAC loops, at ANNUAL, 04/24 07:41 - 07:45
   **   ~~~   ** The solution for one or more of the Air Loop HVAC systems did not appear to converge
   **   ~~~   ** Air System Named = CENTRAL SYSTEM did not converge for mass flow rate
   **   ~~~   ** Check values should be zero. Most Recent values listed first.
   **   ~~~   ** Demand-to-Supply interface mass flow rate check value iteration history trace: 6.569292E-002,6.569292E-002,6.569292E-002,6.569292E-002,6.569292E-002,6.569292E-002,6.569292E-002,6.569292E-002,6.569292E-002,6.569292E-002,
   **   ~~~   ** Supply-to-demand interface deck 1 mass flow rate check value iteration history trace: 6.569292E-002,6.569292E-002,6.569292E-002,6.569292E-002,6.569292E-002,6.569292E-002,6.569292E-002,6.569292E-002,6.569292E-002,6.569292E-002,
   **   ~~~   ** Air System Named = CENTRAL SYSTEM did not converge for energy
   **   ~~~   ** Check values should be zero. Most Recent values listed first.
   **   ~~~   ** Demand-to-Supply interface energy check value iteration history trace: 1298.005840,1298.005840,1298.005840,1298.005840,1298.005840,1298.005840,1298.005840,1298.005840,1298.005840,1298.005839,
   **   ~~~   ** Supply-to-demand interface deck 1 energy check value iteration history trace: 2261.165471,2261.165470,2261.165470,2261.165470,2261.165470,2261.165470,2261.165470,2261.165470,2261.165470,2261.165470,
   ** Warning ** SimHVAC: Maximum iterations (20) exceeded for all HVAC loops, at ANNUAL, 05/03 06:45 - 07:00
   **   ~~~   ** The solution for one or more of the Air Loop HVAC systems did not appear to converge
   **   ~~~   ** Air System Named = CENTRAL SYSTEM did not converge for mass flow rate
   **   ~~~   ** Check values should be zero. Most Recent values listed first.
   **   ~~~   ** Demand-to-Supply interface mass flow rate check value iteration history trace: 0.122208,0.122208,0.122208,0.122208,0.122208,0.122208,0.122208,0.122208,0.122208,0.122208,
   **   ~~~   ** Supply-to-demand interface deck 1 mass flow rate check value iteration history trace: 0.122208,0.122208,0.122208,0.122208,0.122208,0.122208,0.122208,0.122208,0.122208,0.122208,
   **   ~~~   ** Air System Named = CENTRAL SYSTEM did not converge for energy
   **   ~~~   ** Check values should be zero. Most Recent values listed first.
   **   ~~~   ** Demand-to-Supply interface energy check value iteration history trace: 2921.827256,2921.827256,2921.827257,2921.827258,2921.827259,2921.827259,2921.827260,2921.827261,2921.827262,2921.827262,
   **   ~~~   ** Supply-to-demand interface deck 1 energy check value iteration history trace: 1590.650215,1590.650215,1590.650216,1590.650216,1590.650217,1590.650217,1590.650217,1590.650218,1590.650218,1590.650219,
   ** Warning ** SimHVAC: Maximum iterations (20) exceeded for all HVAC loops, at ANNUAL, 05/10 11:53 - 12:00
   **   ~~~   ** The solution for one or more of the Air Loop HVAC systems did not appear to converge
   **   ~~~   ** Air System Named = CENTRAL SYSTEM did not converge for mass flow rate
   **   ~~~   ** Check values should be zero. Most Recent values listed first.
   **   ~~~   ** Demand-to-Supply interface mass flow rate check value iteration history trace: 0.237604,0.237604,0.237604,0.237604,0.237604,0.237604,0.237604,0.237604,0.237604,0.237604,
   **   ~~~   ** Supply-to-demand interface deck 1 mass flow rate check value iteration history trace: 0.237604,0.237604,0.237604,0.237604,0.237604,0.237604,0.237604,0.237604,0.237604,0.237604,
   **   ~~~   ** Air System Named = CENTRAL SYSTEM did not converge for energy
   **   ~~~   ** Check values should be zero. Most Recent values listed first.
   **   ~~~   ** Demand-to-Supply interface energy check value iteration history trace: 5718.145051,5718.145051,5718.145052,5718.145052,5718.145053,5718.145053,5718.145054,5718.145054,5718.145054,5718.145055,
   **   ~~~   ** Supply-to-demand interface deck 1 energy check value iteration history trace: 3200.811930,3200.811931,3200.811931,3200.811931,3200.811931,3200.811932,3200.811932,3200.811932,3200.811932,3200.811933,
   ** Warning ** SimHVAC: Maximum iterations (20) exceeded for all HVAC loops, at ANNUAL, 10/30 11:25 - 11:30
   **   ~~~   ** The solution for one or more of the Air Loop HVAC systems did not appear to converge
   **   ~~~   ** Air System Named = CENTRAL SYSTEM did not converge for mass flow rate
   **   ~~~   ** Check values should be zero. Most Recent values listed first.
   **   ~~~   ** Demand-to-Supply interface mass flow rate check value iteration history trace: 5.571518E-002,5.571518E-002,5.571518E-002,5.571518E-002,5.571518E-002,5.571518E-002,5.571518E-002,5.571518E-002,5.571518E-002,5.571518E-002,
   **   ~~~   ** Supply-to-demand interface deck 1 mass flow rate check value iteration history trace: 5.571518E-002,5.571518E-002,5.571518E-002,5.571518E-002,5.571518E-002,5.571518E-002,5.571518E-002,5.571518E-002,5.571518E-002,5.571518E-002,
   **   ~~~   ** Air System Named = CENTRAL SYSTEM did not converge for energy
   **   ~~~   ** Check values should be zero. Most Recent values listed first.
   **   ~~~   ** Demand-to-Supply interface energy check value iteration history trace: 1095.536217,1095.536217,1095.536217,1095.536217,1095.536217,1095.536217,1095.536217,1095.536217,1095.536217,1095.536216,
   **   ~~~   ** Supply-to-demand interface deck 1 energy check value iteration history trace: 1933.119397,1933.119397,1933.119397,1933.119397,1933.119396,1933.119396,1933.119396,1933.119396,1933.119396,1933.119396,
   ************* Simulation Error Summary *************
   ** Warning ** The following Report Variables were requested but not generated -- check.rdd file
   **   ~~~   ** Either the IDF did not contain these elements, the variable name is misspelled,
   **   ~~~   ** or the requested variable is an advanced output which requires Output : Diagnostics, DisplayAdvancedReportVariables;
   ************* Key=*, VarName=BASEBOARD TOTAL HEATING ENERGY, Frequency=
   ************* Key=*, VarName=WATER HEATER NATURALGAS ENERGY, Frequency=
   ************* Key=*, VarName=COOLING COIL TOTAL HEATING ENERGY, Frequency=
   ************* There are 34 unused schedules in input.
   ************* There are 388 unused week schedules in input.
   ************* There are 396 unused day schedules in input.
   ************* Use Output:Diagnostics,DisplayUnusedSchedules; to see them.
   *************
   ************* ===== Recurring Error Summary =====
   ************* The following recurring error messages occurred.
   *************
   *************  ** Warning ** "TOTAL HOT WATER LOAD" - Target water temperature should be less than or equal to the hot water temperature error continues...
   *************  **   ~~~   **   This error occurred 174405 total times;
   *************  **   ~~~   **   during Warmup 0 times;
   *************  **   ~~~   **   during Sizing 0 times.
   *************  **   ~~~   **   Max=11.933498  Min=2.687480E-005
   *************
   *************  ** Warning ** Temperature out of range [-100. to 200.] (PsyPsatFnTemp)
   *************  **   ~~~   **   This error occurred 1 total times;
   *************  **   ~~~   **   during Warmup 0 times;
   *************  **   ~~~   **   during Sizing 0 times.
   *************  **   ~~~   **   Max=-320.55658 C  Min=-320.55658 C
   *************
   *************  ** Warning ** SimHVAC: Exceeding Maximum iterations for all HVAC loops, during ANNUAL continues
   *************  **   ~~~   **   This error occurred 9 total times;
   *************  **   ~~~   **   during Warmup 0 times;
   *************  **   ~~~   **   during Sizing 0 times.
   *************
   *************
   ************* ===== Final Error Summary =====
   ************* The following error categories occurred.  Consider correcting or noting.
   ************* Nominally Unused Constructions
   ************* ..The nominally unused constructions warning is provided to alert you to potential conditions that can cause
   ************* ..extra time during simulation. Each construction is calculated by the algorithm indicated in the HeatBalanceAlgorithm
   ************* ..object. You may remove the constructions indicated (when you use the DisplayExtraWarnings option).
   *************
   ************* EnergyPlus Warmup Error Summary. During Warmup: 1 Warning; 0 Severe Errors.
   ************* EnergyPlus Sizing Error Summary. During Sizing: 4 Warning; 0 Severe Errors.
   ************* EnergyPlus Completed Successfully-- 174447 Warning; 0 Severe Errors; Elapsed Time=00hr 01min 43.25sec
