Program Version,EnergyPlus, Version 22.2.0-c249759bad, YMD=2023.09.01 19:52,
   ************* Beginning Zone Sizing Calculations
   ** Warning ** ProcessScheduleInput: Schedule:Constant="ALWAYS ON DISCRETE", Schedule Type Limits Name="ONOFF" not found -- will not be validated
   ** Warning ** Foundation:Kiva="KIVA FOUNDATION", no Interior Horizontal Insulation Material Name defined
   **   ~~~   ** Interior Horizontal Insulation Depth will not be used.
   ** Warning ** CheckUsedConstructions: There are 15 nominally unused constructions in input.
   **   ~~~   ** Each Unused construction is shown.
   ************* Construction=INTERIOR FLOOR
   ************* Construction=INTERIOR WINDOW
   ************* Construction=EXTERIOR DOOR
   ************* Construction=INTERIOR DOOR
   ************* Construction=GABLE CONSTRUCTION
   ************* Construction=CRAWL_FLOOR
   ************* Construction=INSULATED PIPE
   ************* Construction=PLAIN PIPE
   ************* Construction=TDD PIPE
   ************* Construction=TDD DOME
   ************* Construction=TDD DIFFUSER
   ************* Construction=CRAWL WALL
   ************* Construction=CEILING-FLOOR-LAYER
   ************* Construction=SLAB CONSTRUCTION W FULL R10 INSULATION
   ************* Construction=SLAB CONSTRUCTION W FULL R5 INSULATION
   ** Warning ** GetDXCoils: Coil:Heating:DX:SingleSpeed="DX_HEATING_COIL" curve values
   **   ~~~   ** ... Defrost Energy Input Ratio Function of Temperature Curve Name = DEFROSTEIR output is not equal to 1.0 (+ or - 10%) at rated conditions.
   **   ~~~   ** ... Curve output at rated conditions = 0.152
   ************* Beginning System Sizing Calculations
   ************* Beginning Plant Sizing Calculations
   ** Warning ** SizeDXCoil Coil:Cooling:DX:SingleSpeed DX_COOLING_COIL
   **   ~~~   ** ...Gross Rated Total Cooling Capacity [W] will be limited by the maximum rated volume flow per rated total capacity ratio.
   **   ~~~   ** ...DX coil volume flow rate ( m3/s ) = 0.400069
   **   ~~~   ** ...Requested capacity ( W ) = 6291.305
   **   ~~~   ** ...Requested flow/capacity ratio ( m3/s/W ) = 6.359E-005
   **   ~~~   ** ...Maximum flow/capacity ratio ( m3/s/W ) = 6.041E-005
   **   ~~~   ** ...Adjusted capacity ( W ) = 6622.569
   ** Warning ** SizeDXCoil Coil:Heating:DX:SingleSpeed DX_HEATING_COIL
   **   ~~~   ** ...Gross Rated Heating Capacity [W] will be limited by the maximum rated volume flow per rated total capacity ratio.
   **   ~~~   ** ...DX coil volume flow rate ( m3/s ) = 0.400069
   **   ~~~   ** ...Requested capacity ( W ) = 6622.569
   **   ~~~   ** ...Requested flow/capacity ratio ( m3/s/W ) = 6.041E-005
   **   ~~~   ** ...Maximum flow/capacity ratio ( m3/s/W ) = 6.041E-005
   **   ~~~   ** ...Adjusted capacity ( W ) = 6622.569
   ** Warning ** Coil:WaterHeating:AirToWaterHeatPump:Wrapped "HEAT PUMP WATER HEATER EVAPORATOR": Rated air volume flow rate per watt of rated total water heating capacity is out of range
   **   ~~~   ** Min Rated Vol Flow Per Watt=[4.027E-005], Rated Vol Flow Per Watt=[1.510E-004], Max Rated Vol Flow Per Watt=[8.056E-005]. See Input-Output Reference Manual for valid range.
   ************* SizeFan: : Potential issue with equipment sizing for Fan:OnOff HEAT PUMP WATER HEATER FAN
   **   ~~~   ** User-Specified Maximum Flow Rate [m3/s] = 0.22653
   **   ~~~   ** differs from Design Size Maximum Flow Rate [m3/s] = 7.55250E-002
   **   ~~~   ** This may, or may not, indicate mismatched component sizes.
   **   ~~~   ** Verify that the value entered is intended and is consistent with other components.
   ** Warning ** Water heater = WATER HEATER TANK:  Recovery Efficiency and Energy Factor could not be calculated during the test for standard ratings
   **   ~~~   ** Setpoint was never recovered and/or heater never turned on
   ** Warning ** Check input. Pump nominal power or motor efficiency is set to 0, for pump=MAINS PRESSURE
   ** Warning ** Output:Meter: invalid Key Name="ELECTRIC_RANGE:INTERIOREQUIPMENT:ELECTRICITY" - not found.
   ** Warning ** Output:Meter: invalid Key Name="ELECTRIC_DRYER:INTERIOREQUIPMENT:ELECTRICITY" - not found.
   ** Warning ** Output:Meter: invalid Key Name="HEATRECOVERY:ELECTRICITY" - not found.
   ** Warning ** Output:Meter: invalid Key Name="HEATING:NATURALGAS" - not found.
   ** Warning ** Output:Meter: invalid Key Name="WATERSYSTEMS:NATURALGAS" - not found.
   ** Warning ** Output:Meter: invalid Key Name="PROPANE:FACILITY" - not found.
   ** Warning ** Output:Meter: invalid Key Name="HEATING:PROPANE" - not found.
   ************* Testing Individual Branch Integrity
   ************* All Branches passed integrity testing
   ************* Testing Individual Supply Air Path Integrity
   ************* All Supply Air Paths passed integrity testing
   ************* Testing Individual Return Air Path Integrity
   ************* All Return Air Paths passed integrity testing
   ************* No node connection errors were found.
   ************* Beginning Simulation
   ** Warning ** AirflowNetwork::Solver::validate_distribution: Heat pump water heater is simulated along with an AirflowNetwork but is not included in the AirflowNetwork.
   ** Warning ** CalcEquipmentFlowRates: "TOTAL HOT WATER LOAD" - Target water temperature is greater than the hot water temperature by (3.34 C)
   **   ~~~   **  Environment=EXTREME_WINTER, at Simulation time=01/06 06:00 - 06:15
   **   ~~~   ** ...target water temperature     = 53.33 C
   **   ~~~   ** ...hot water temperature        = 49.99 C
   **   ~~~   ** ...Target water temperature should be less than or equal to the hot water temperature. Verify temperature setpoints and schedules.
   ** Warning ** SimHVAC: Maximum iterations (20) exceeded for all HVAC loops, at EXTREME_SUMMER, 07/26 04:30 - 04:45
   **   ~~~   ** The solution for one or more of the Air Loop HVAC systems did not appear to converge
   **   ~~~   ** Air System Named = CENTRAL SYSTEM did not converge for mass flow rate
   **   ~~~   ** Check values should be zero. Most Recent values listed first.
   **   ~~~   ** Demand-to-Supply interface mass flow rate check value iteration history trace: 9.643432E-002,9.643432E-002,9.643432E-002,9.643432E-002,9.643432E-002,9.643432E-002,9.643432E-002,9.643432E-002,9.643432E-002,9.643432E-002,
   **   ~~~   ** Supply-to-demand interface deck 1 mass flow rate check value iteration history trace: 9.643432E-002,9.643432E-002,9.643432E-002,9.643432E-002,9.643432E-002,9.643432E-002,9.643432E-002,9.643432E-002,9.643432E-002,9.643432E-002,
   **   ~~~   ** Air System Named = CENTRAL SYSTEM did not converge for energy
   **   ~~~   ** Check values should be zero. Most Recent values listed first.
   **   ~~~   ** Demand-to-Supply interface energy check value iteration history trace: 2377.892117,2377.892117,2377.892118,2377.892118,2377.892119,2377.892119,2377.892120,2377.892121,2377.892121,2377.892122,
   **   ~~~   ** Supply-to-demand interface deck 1 energy check value iteration history trace: 1338.186991,1338.186991,1338.186992,1338.186992,1338.186992,1338.186992,1338.186993,1338.186993,1338.186993,1338.186994,
   ** Warning ** SimHVAC: Maximum iterations (20) exceeded for all HVAC loops, at ANNUAL, 01/01 13:15 - 13:20
   **   ~~~   ** The solution for one or more of the Air Loop HVAC systems did not appear to converge
   **   ~~~   ** Air System Named = CENTRAL SYSTEM did not converge for mass flow rate
   **   ~~~   ** Check values should be zero. Most Recent values listed first.
   **   ~~~   ** Demand-to-Supply interface mass flow rate check value iteration history trace: 9.085131E-002,9.085131E-002,9.085131E-002,9.085131E-002,9.085131E-002,9.085131E-002,9.085131E-002,9.085131E-002,9.085131E-002,9.085131E-002,
   **   ~~~   ** Supply-to-demand interface deck 1 mass flow rate check value iteration history trace: 9.085131E-002,9.085131E-002,9.085131E-002,9.085131E-002,9.085131E-002,9.085131E-002,9.085131E-002,9.085131E-002,9.085131E-002,9.085131E-002,
   **   ~~~   ** Air System Named = CENTRAL SYSTEM did not converge for energy
   **   ~~~   ** Check values should be zero. Most Recent values listed first.
   **   ~~~   ** Demand-to-Supply interface energy check value iteration history trace: 1801.766795,1801.766795,1801.766795,1801.766795,1801.766795,1801.766795,1801.766795,1801.766794,1801.766794,1801.766794,
   **   ~~~   ** Supply-to-demand interface deck 1 energy check value iteration history trace: 2733.847067,2733.847067,2733.847067,2733.847066,2733.847066,2733.847066,2733.847066,2733.847066,2733.847065,2733.847065,
   ** Warning ** SimHVAC: Maximum iterations (20) exceeded for all HVAC loops, at ANNUAL, 01/07 12:00 - 12:08
   **   ~~~   ** The solution for one or more of the Air Loop HVAC systems did not appear to converge
   **   ~~~   ** Air System Named = CENTRAL SYSTEM did not converge for mass flow rate
   **   ~~~   ** Check values should be zero. Most Recent values listed first.
   **   ~~~   ** Demand-to-Supply interface mass flow rate check value iteration history trace: 6.737118E-002,6.737118E-002,6.737118E-002,6.737118E-002,6.737118E-002,6.737118E-002,6.737118E-002,6.737118E-002,6.737118E-002,6.737118E-002,
   **   ~~~   ** Supply-to-demand interface deck 1 mass flow rate check value iteration history trace: 6.737118E-002,6.737118E-002,6.737118E-002,6.737118E-002,6.737118E-002,6.737118E-002,6.737118E-002,6.737118E-002,6.737118E-002,6.737118E-002,
   **   ~~~   ** Air System Named = CENTRAL SYSTEM did not converge for energy
   **   ~~~   ** Check values should be zero. Most Recent values listed first.
   **   ~~~   ** Demand-to-Supply interface energy check value iteration history trace: 1334.956723,1334.956723,1334.956723,1334.956723,1334.956723,1334.956723,1334.956722,1334.956722,1334.956722,1334.956722,
   **   ~~~   ** Supply-to-demand interface deck 1 energy check value iteration history trace: 2071.338567,2071.338567,2071.338567,2071.338567,2071.338567,2071.338566,2071.338566,2071.338566,2071.338566,2071.338566,
   ** Warning ** SimHVAC: Maximum iterations (20) exceeded for all HVAC loops, at ANNUAL, 02/17 11:30 - 11:45
   **   ~~~   ** The solution for one or more of the Air Loop HVAC systems did not appear to converge
   **   ~~~   ** Air System Named = CENTRAL SYSTEM did not converge for mass flow rate
   **   ~~~   ** Check values should be zero. Most Recent values listed first.
   **   ~~~   ** Demand-to-Supply interface mass flow rate check value iteration history trace: 7.259098E-002,7.259098E-002,7.259098E-002,7.259098E-002,7.259098E-002,7.259098E-002,7.259098E-002,7.259098E-002,7.259098E-002,7.259098E-002,
   **   ~~~   ** Supply-to-demand interface deck 1 mass flow rate check value iteration history trace: 7.259098E-002,7.259098E-002,7.259098E-002,7.259098E-002,7.259098E-002,7.259098E-002,7.259098E-002,7.259098E-002,7.259098E-002,7.259098E-002,
   **   ~~~   ** Air System Named = CENTRAL SYSTEM did not converge for energy
   **   ~~~   ** Check values should be zero. Most Recent values listed first.
   **   ~~~   ** Demand-to-Supply interface energy check value iteration history trace: 1438.487925,1438.487925,1438.487925,1438.487925,1438.487925,1438.487925,1438.487924,1438.487924,1438.487924,1438.487924,
   **   ~~~   ** Supply-to-demand interface deck 1 energy check value iteration history trace: 2195.128244,2195.128243,2195.128243,2195.128243,2195.128243,2195.128243,2195.128243,2195.128242,2195.128242,2195.128242,
   ** Warning ** SimHVAC: Maximum iterations (20) exceeded for all HVAC loops, at ANNUAL, 02/21 19:45 - 20:00
   **   ~~~   ** The solution for one or more of the Air Loop HVAC systems did not appear to converge
   **   ~~~   ** Air System Named = CENTRAL SYSTEM did not converge for mass flow rate
   **   ~~~   ** Check values should be zero. Most Recent values listed first.
   **   ~~~   ** Demand-to-Supply interface mass flow rate check value iteration history trace: 8.170635E-002,8.170635E-002,8.170635E-002,8.170635E-002,8.170635E-002,8.170635E-002,8.170635E-002,8.170635E-002,8.170635E-002,8.170635E-002,
   **   ~~~   ** Supply-to-demand interface deck 1 mass flow rate check value iteration history trace: 8.170635E-002,8.170635E-002,8.170635E-002,8.170635E-002,8.170635E-002,8.170635E-002,8.170635E-002,8.170635E-002,8.170635E-002,8.170635E-002,
   **   ~~~   ** Air System Named = CENTRAL SYSTEM did not converge for energy
   **   ~~~   ** Check values should be zero. Most Recent values listed first.
   **   ~~~   ** Demand-to-Supply interface energy check value iteration history trace: 1616.390343,1616.390343,1616.390343,1616.390343,1616.390343,1616.390343,1616.390343,1616.390343,1616.390342,1616.390342,
   **   ~~~   ** Supply-to-demand interface deck 1 energy check value iteration history trace: 2481.475864,2481.475864,2481.475864,2481.475864,2481.475864,2481.475863,2481.475863,2481.475863,2481.475863,2481.475863,
   ** Warning ** SimHVAC: Maximum iterations (20) exceeded for all HVAC loops, at ANNUAL, 02/26 23:15 - 23:20
   **   ~~~   ** The solution for one or more of the Air Loop HVAC systems did not appear to converge
   **   ~~~   ** Air System Named = CENTRAL SYSTEM did not converge for mass flow rate
   **   ~~~   ** Check values should be zero. Most Recent values listed first.
   **   ~~~   ** Demand-to-Supply interface mass flow rate check value iteration history trace: 8.971049E-002,8.971049E-002,8.971049E-002,8.971049E-002,8.971049E-002,8.971049E-002,8.971049E-002,8.971049E-002,8.971049E-002,8.971049E-002,
   **   ~~~   ** Supply-to-demand interface deck 1 mass flow rate check value iteration history trace: 8.971049E-002,8.971049E-002,8.971049E-002,8.971049E-002,8.971049E-002,8.971049E-002,8.971049E-002,8.971049E-002,8.971049E-002,8.971049E-002,
   **   ~~~   ** Air System Named = CENTRAL SYSTEM did not converge for energy
   **   ~~~   ** Check values should be zero. Most Recent values listed first.
   **   ~~~   ** Demand-to-Supply interface energy check value iteration history trace: 1714.956006,1714.956006,1714.956006,1714.956006,1714.956006,1714.956006,1714.956005,1714.956005,1714.956005,1714.956005,
   **   ~~~   ** Supply-to-demand interface deck 1 energy check value iteration history trace: 2644.818622,2644.818622,2644.818622,2644.818621,2644.818621,2644.818621,2644.818621,2644.818621,2644.818621,2644.818621,
   ** Warning ** SimHVAC: Maximum iterations (20) exceeded for all HVAC loops, at ANNUAL, 03/20 15:30 - 15:45
   **   ~~~   ** The solution for one or more of the Air Loop HVAC systems did not appear to converge
   **   ~~~   ** Air System Named = CENTRAL SYSTEM did not converge for energy
   **   ~~~   ** Check values should be zero. Most Recent values listed first.
   **   ~~~   ** Demand-to-Supply interface energy check value iteration history trace: 170.439492,170.439492,170.439492,170.439492,170.439492,170.439492,170.439492,170.439492,170.439492,170.439492,
   **   ~~~   ** Supply-to-demand interface deck 1 energy check value iteration history trace: 312.352340,312.352340,312.352340,312.352340,312.352340,312.352340,312.352340,312.352340,312.352340,312.352340,
   ** Warning ** Temperature out of range [-100. to 200.] (PsyPsatFnTemp)
   **   ~~~   **  Routine=PsyTwbFnTdbWPb, Environment=ANNUAL, at Simulation time=03/23 04:45 - 05:00
   **   ~~~   **  Input Temperature=-137.44
   ** Warning ** SimHVAC: Maximum iterations (20) exceeded for all HVAC loops, at ANNUAL, 03/24 09:45 - 09:48
   **   ~~~   ** The solution for one or more of the Air Loop HVAC systems did not appear to converge
   **   ~~~   ** Air System Named = CENTRAL SYSTEM did not converge for mass flow rate
   **   ~~~   ** Check values should be zero. Most Recent values listed first.
   **   ~~~   ** Demand-to-Supply interface mass flow rate check value iteration history trace: 8.213147E-002,8.213147E-002,8.213147E-002,8.213147E-002,8.213147E-002,8.213147E-002,8.213147E-002,8.213147E-002,8.213147E-002,8.213147E-002,
   **   ~~~   ** Supply-to-demand interface deck 1 mass flow rate check value iteration history trace: 8.213147E-002,8.213147E-002,8.213147E-002,8.213147E-002,8.213147E-002,8.213147E-002,8.213147E-002,8.213147E-002,8.213147E-002,8.213147E-002,
   **   ~~~   ** Air System Named = CENTRAL SYSTEM did not converge for energy
   **   ~~~   ** Check values should be zero. Most Recent values listed first.
   **   ~~~   ** Demand-to-Supply interface energy check value iteration history trace: 1627.570290,1627.570289,1627.570289,1627.570289,1627.570289,1627.570289,1627.570289,1627.570289,1627.570289,1627.570289,
   **   ~~~   ** Supply-to-demand interface deck 1 energy check value iteration history trace: 2512.071544,2512.071543,2512.071543,2512.071543,2512.071543,2512.071543,2512.071543,2512.071542,2512.071542,2512.071542,
   ** Warning ** SimHVAC: Maximum iterations (20) exceeded for all HVAC loops, at ANNUAL, 03/25 10:41 - 10:43
   **   ~~~   ** The solution for one or more of the Air Loop HVAC systems did not appear to converge
   **   ~~~   ** Air System Named = CENTRAL SYSTEM did not converge for mass flow rate
   **   ~~~   ** Check values should be zero. Most Recent values listed first.
   **   ~~~   ** Demand-to-Supply interface mass flow rate check value iteration history trace: 6.504573E-002,6.504573E-002,6.504573E-002,6.504573E-002,6.504573E-002,6.504573E-002,6.504573E-002,6.504573E-002,6.504573E-002,6.504573E-002,
   **   ~~~   ** Supply-to-demand interface deck 1 mass flow rate check value iteration history trace: 6.504573E-002,6.504573E-002,6.504573E-002,6.504573E-002,6.504573E-002,6.504573E-002,6.504573E-002,6.504573E-002,6.504573E-002,6.504573E-002,
   **   ~~~   ** Air System Named = CENTRAL SYSTEM did not converge for energy
   **   ~~~   ** Check values should be zero. Most Recent values listed first.
   **   ~~~   ** Demand-to-Supply interface energy check value iteration history trace: 1283.603619,1283.603619,1283.603619,1283.603619,1283.603619,1283.603619,1283.603619,1283.603619,1283.603619,1283.603619,
   **   ~~~   ** Supply-to-demand interface deck 1 energy check value iteration history trace: 2166.626148,2166.626148,2166.626148,2166.626148,2166.626147,2166.626147,2166.626147,2166.626147,2166.626147,2166.626147,
   ** Warning ** SimHVAC: Maximum iterations (20) exceeded for all HVAC loops, at ANNUAL, 03/29 09:34 - 09:38
   **   ~~~   ** The solution for one or more of the Air Loop HVAC systems did not appear to converge
   **   ~~~   ** Air System Named = CENTRAL SYSTEM did not converge for mass flow rate
   **   ~~~   ** Check values should be zero. Most Recent values listed first.
   **   ~~~   ** Demand-to-Supply interface mass flow rate check value iteration history trace: 5.835990E-002,5.835990E-002,5.835990E-002,5.835990E-002,5.835990E-002,5.835990E-002,5.835990E-002,5.835990E-002,5.835990E-002,5.835990E-002,
   **   ~~~   ** Supply-to-demand interface deck 1 mass flow rate check value iteration history trace: 5.835990E-002,5.835990E-002,5.835990E-002,5.835990E-002,5.835990E-002,5.835990E-002,5.835990E-002,5.835990E-002,5.835990E-002,5.835990E-002,
   **   ~~~   ** Air System Named = CENTRAL SYSTEM did not converge for energy
   **   ~~~   ** Check values should be zero. Most Recent values listed first.
   **   ~~~   ** Demand-to-Supply interface energy check value iteration history trace: 1156.544073,1156.544073,1156.544073,1156.544073,1156.544073,1156.544073,1156.544073,1156.544073,1156.544073,1156.544073,
   **   ~~~   ** Supply-to-demand interface deck 1 energy check value iteration history trace: 2034.147583,2034.147583,2034.147583,2034.147583,2034.147583,2034.147583,2034.147583,2034.147583,2034.147583,2034.147583,
   ** Warning ** SimHVAC: Maximum iterations (20) exceeded for all HVAC loops, at ANNUAL, 04/06 06:45 - 07:00
   **   ~~~   ** The solution for one or more of the Air Loop HVAC systems did not appear to converge
   **   ~~~   ** Air System Named = CENTRAL SYSTEM did not converge for mass flow rate
   **   ~~~   ** Check values should be zero. Most Recent values listed first.
   **   ~~~   ** Demand-to-Supply interface mass flow rate check value iteration history trace: 7.767300E-002,7.767300E-002,7.767300E-002,7.767300E-002,7.767300E-002,7.767300E-002,7.767300E-002,7.767300E-002,7.767300E-002,7.767300E-002,
   **   ~~~   ** Supply-to-demand interface deck 1 mass flow rate check value iteration history trace: 7.767300E-002,7.767300E-002,7.767300E-002,7.767300E-002,7.767300E-002,7.767300E-002,7.767300E-002,7.767300E-002,7.767300E-002,7.767300E-002,
   **   ~~~   ** Air System Named = CENTRAL SYSTEM did not converge for energy
   **   ~~~   ** Check values should be zero. Most Recent values listed first.
   **   ~~~   ** Demand-to-Supply interface energy check value iteration history trace: 1539.003314,1539.003314,1539.003314,1539.003314,1539.003314,1539.003314,1539.003314,1539.003314,1539.003314,1539.003313,
   **   ~~~   ** Supply-to-demand interface deck 1 energy check value iteration history trace: 2583.354048,2583.354048,2583.354048,2583.354048,2583.354048,2583.354048,2583.354048,2583.354047,2583.354047,2583.354047,
   ** Warning ** SimHVAC: Maximum iterations (20) exceeded for all HVAC loops, at ANNUAL, 04/20 08:00 - 08:08
   **   ~~~   ** The solution for one or more of the Air Loop HVAC systems did not appear to converge
   **   ~~~   ** Air System Named = CENTRAL SYSTEM did not converge for mass flow rate
   **   ~~~   ** Check values should be zero. Most Recent values listed first.
   **   ~~~   ** Demand-to-Supply interface mass flow rate check value iteration history trace: 5.379488E-002,5.379488E-002,5.379488E-002,5.379488E-002,5.379488E-002,5.379488E-002,5.379488E-002,5.379488E-002,5.379488E-002,5.379488E-002,
   **   ~~~   ** Supply-to-demand interface deck 1 mass flow rate check value iteration history trace: 5.379488E-002,5.379488E-002,5.379488E-002,5.379488E-002,5.379488E-002,5.379488E-002,5.379488E-002,5.379488E-002,5.379488E-002,5.379488E-002,
   **   ~~~   ** Air System Named = CENTRAL SYSTEM did not converge for energy
   **   ~~~   ** Check values should be zero. Most Recent values listed first.
   **   ~~~   ** Demand-to-Supply interface energy check value iteration history trace: 1062.311534,1062.311534,1062.311534,1062.311534,1062.311534,1062.311534,1062.311534,1062.311533,1062.311533,1062.311533,
   **   ~~~   ** Supply-to-demand interface deck 1 energy check value iteration history trace: 1928.963647,1928.963647,1928.963647,1928.963647,1928.963647,1928.963647,1928.963647,1928.963647,1928.963647,1928.963646,
   ** Warning ** SimHVAC: Maximum iterations (20) exceeded for all HVAC loops, at ANNUAL, 11/09 08:08 - 08:11
   **   ~~~   ** The solution for one or more of the Air Loop HVAC systems did not appear to converge
   **   ~~~   ** Air System Named = CENTRAL SYSTEM did not converge for mass flow rate
   **   ~~~   ** Check values should be zero. Most Recent values listed first.
   **   ~~~   ** Demand-to-Supply interface mass flow rate check value iteration history trace: 6.692417E-002,6.692417E-002,6.692417E-002,6.692417E-002,6.692417E-002,6.692417E-002,6.692417E-002,6.692417E-002,6.692417E-002,6.692417E-002,
   **   ~~~   ** Supply-to-demand interface deck 1 mass flow rate check value iteration history trace: 6.692417E-002,6.692417E-002,6.692417E-002,6.692417E-002,6.692417E-002,6.692417E-002,6.692417E-002,6.692417E-002,6.692417E-002,6.692417E-002,
   **   ~~~   ** Air System Named = CENTRAL SYSTEM did not converge for energy
   **   ~~~   ** Check values should be zero. Most Recent values listed first.
   **   ~~~   ** Demand-to-Supply interface energy check value iteration history trace: 1317.614638,1317.614638,1317.614638,1317.614638,1317.614638,1317.614638,1317.614638,1317.614638,1317.614638,1317.614638,
   **   ~~~   ** Supply-to-demand interface deck 1 energy check value iteration history trace: 2210.052853,2210.052853,2210.052853,2210.052852,2210.052852,2210.052852,2210.052852,2210.052852,2210.052852,2210.052852,
   ** Warning ** SimHVAC: Maximum iterations (20) exceeded for all HVAC loops, at ANNUAL, 11/13 09:45 - 10:00
   **   ~~~   ** The solution for one or more of the Air Loop HVAC systems did not appear to converge
   **   ~~~   ** Air System Named = CENTRAL SYSTEM did not converge for mass flow rate
   **   ~~~   ** Check values should be zero. Most Recent values listed first.
   **   ~~~   ** Demand-to-Supply interface mass flow rate check value iteration history trace: 6.139538E-002,6.139538E-002,6.139538E-002,6.139538E-002,6.139538E-002,6.139538E-002,6.139538E-002,6.139538E-002,6.139538E-002,6.139538E-002,
   **   ~~~   ** Supply-to-demand interface deck 1 mass flow rate check value iteration history trace: 6.139538E-002,6.139538E-002,6.139538E-002,6.139538E-002,6.139538E-002,6.139538E-002,6.139538E-002,6.139538E-002,6.139538E-002,6.139538E-002,
   **   ~~~   ** Air System Named = CENTRAL SYSTEM did not converge for energy
   **   ~~~   ** Check values should be zero. Most Recent values listed first.
   **   ~~~   ** Demand-to-Supply interface energy check value iteration history trace: 1216.633596,1216.633596,1216.633596,1216.633596,1216.633596,1216.633596,1216.633595,1216.633595,1216.633595,1216.633595,
   **   ~~~   ** Supply-to-demand interface deck 1 energy check value iteration history trace: 2157.241781,2157.241781,2157.241781,2157.241781,2157.241780,2157.241780,2157.241780,2157.241780,2157.241780,2157.241780,
   ************* Simulation Error Summary *************
   ** Warning ** The following Report Variables were requested but not generated -- check.rdd file
   **   ~~~   ** Either the IDF did not contain these elements, the variable name is misspelled,
   **   ~~~   ** or the requested variable is an advanced output which requires Output : Diagnostics, DisplayAdvancedReportVariables;
   ************* Key=*, VarName=BASEBOARD TOTAL HEATING ENERGY, Frequency=
   ************* Key=*, VarName=WATER HEATER NATURALGAS ENERGY, Frequency=
   ************* Key=*, VarName=COOLING COIL TOTAL HEATING ENERGY, Frequency=
   ************* There are 34 unused schedules in input.
   ************* There are 388 unused week schedules in input.
   ************* There are 396 unused day schedules in input.
   ************* Use Output:Diagnostics,DisplayUnusedSchedules; to see them.
   *************
   ************* ===== Recurring Error Summary =====
   ************* The following recurring error messages occurred.
   *************
   *************  ** Warning ** "TOTAL HOT WATER LOAD" - Target water temperature should be less than or equal to the hot water temperature error continues...
   *************  **   ~~~   **   This error occurred 115867 total times;
   *************  **   ~~~   **   during Warmup 0 times;
   *************  **   ~~~   **   during Sizing 0 times.
   *************  **   ~~~   **   Max=11.39708  Min=2.503789E-005
   *************
   *************  ** Warning ** Temperature out of range [-100. to 200.] (PsyPsatFnTemp)
   *************  **   ~~~   **   This error occurred 1 total times;
   *************  **   ~~~   **   during Warmup 0 times;
   *************  **   ~~~   **   during Sizing 0 times.
   *************  **   ~~~   **   Max=-137.441788 C  Min=-137.441788 C
   *************
   *************  ** Warning ** SimHVAC: Exceeding Maximum iterations for all HVAC loops, during ANNUAL continues
   *************  **   ~~~   **   This error occurred 3 total times;
   *************  **   ~~~   **   during Warmup 0 times;
   *************  **   ~~~   **   during Sizing 0 times.
   *************
   *************
   ************* ===== Final Error Summary =====
   ************* The following error categories occurred.  Consider correcting or noting.
   ************* Nominally Unused Constructions
   ************* ..The nominally unused constructions warning is provided to alert you to potential conditions that can cause
   ************* ..extra time during simulation. Each construction is calculated by the algorithm indicated in the HeatBalanceAlgorithm
   ************* ..object. You may remove the constructions indicated (when you use the DisplayExtraWarnings option).
   *************
   ************* EnergyPlus Warmup Error Summary. During Warmup: 1 Warning; 0 Severe Errors.
   ************* EnergyPlus Sizing Error Summary. During Sizing: 4 Warning; 0 Severe Errors.
   ************* EnergyPlus Completed Successfully-- 115904 Warning; 0 Severe Errors; Elapsed Time=00hr 01min 26.64sec
