Program Version,EnergyPlus, Version 22.2.0-c249759bad, YMD=2024.02.09 15:36,
   ** Warning ** Due to PerformancePrecisionTradeoffs Override Mode, the Number of TimeSteps has been changed to 1.
   ** Warning ** Due to PerformancePrecisionTradeoffs Override Mode, the ZoneAirHeatBalanceAlgorithm has been changed to EulerMethod.
   ** Warning ** Due to PerformancePrecisionTradeoffs Override Mode, the Minimum Number of Warmup Days has been changed to 1.
   ** Warning ** Due to PerformancePrecisionTradeoffs Override Mode, the Begin Environment Reset Mode has been changed to SuppressAllBeginEnvironmentResets.
   ** Warning ** Due to PerformancePrecisionTradeoffs Override Mode, the minimum System TimeSteps has been changed to 1 hr.
   ** Warning ** Due to PerformancePrecisionTradeoffs Override Mode, the saturated temperature will be calculated using cubic spline interpolations in replacement of PsychTsatFnPb .
   ** Warning ** Due to PerformancePrecisionTradeoffs Override Mode, internal variable MaxZoneTempDiff will be set to 1.0 .
   ** Warning ** PerformancePrecisionTradeoffs: Coil Direct Solution simulation is selected.
   ** Warning ** PerformancePrecisionTradeoffs: Carroll MRT radiant exchange method is selected.
   ** Warning ** Due to the use of the fast simulation mode, the time step for simulation and averaging window of sizing is overwritten to one hour. Original user inputs for averaging window and timestep are no longer used.
   ************* Beginning Zone Sizing Calculations
   ** Warning ** Foundation:Kiva="KIVA FOUNDATION", no Interior Horizontal Insulation Material Name defined
   **   ~~~   ** Interior Horizontal Insulation Depth will not be used.
   ** Warning ** CheckUsedConstructions: There are 16 nominally unused constructions in input.
   **   ~~~   ** Each Unused construction is shown.
   ************* Construction=INTERIOR FLOOR
   ************* Construction=INTERIOR WINDOW
   ************* Construction=EXTERIOR DOOR
   ************* Construction=INTERIOR DOOR
   ************* Construction=GABLE CONSTRUCTION
   ************* Construction=CRAWL_FLOOR
   ************* Construction=INSULATED PIPE
   ************* Construction=PLAIN PIPE
   ************* Construction=TDD PIPE
   ************* Construction=TDD DOME
   ************* Construction=TDD DIFFUSER
   ************* Construction=CRAWL WALL
   ************* Construction=INTERIORFURNISHINGS
   ************* Construction=CEILING-FLOOR-LAYER
   ************* Construction=SLAB CONSTRUCTION W FULL R10 INSULATION
   ************* Construction=SLAB CONSTRUCTION W FULL R5 INSULATION
   ** Severe  ** CheckWarmupConvergence: Loads Initialization, Zone="LIVING" did not converge after 25 warmup days.
   **   ~~~   ** Warmup Convergence failing during sizing.
   **   ~~~   ** ...Environment(SizingPeriod)="EXTREME_WINTER"
   **   ~~~   ** ..Max Temp Comparison = 9.03E-004 vs Temperature Convergence Tolerance=5.00E-002 - Pass Convergence
   **   ~~~   ** ..Min Temp Comparison = 1.43E-004 vs Temperature Convergence Tolerance=5.00E-002 - Pass Convergence
   **   ~~~   ** ..Max Heat Load Comparison = 9.4220E-002 vs Loads Convergence Tolerance=5.00E-002 - Fail Convergence
   **   ~~~   ** ..Max Cool Load Comparison = 0.0000 vs Loads Convergence Tolerance=5.00E-002 - Pass Convergence
   ************* Beginning System Sizing Calculations
   ** Warning ** ManageSizing: For a plant sizing run, there must be at least 1 Sizing:Plant object input. SimulationControl Plant Sizing option ignored.
   ************* SizeHVACSingleDuct: Potential issue with equipment sizing for AirTerminal:SingleDuct:ConstantVolume:NoReheat = "ZONEDIRECTAIR".
   **   ~~~   ** User-Specified Maximum Air Flow Rate of 0.32722 [m3/s]
   **   ~~~   ** differs from Design Size Maximum Air Flow Rate of 0.57907 [m3/s]
   **   ~~~   ** This may, or may not, indicate mismatched component sizes.
   **   ~~~   ** Verify that the value entered is intended and is consistent with other components.
   ** Warning ** GetDXCoils: Coil:Heating:DX:MultiSpeed="DX_HEATING_COIL" curve values
   **   ~~~   ** ... Defrost Energy Input Ratio Function of Temperature Curve Name = DEFROSTEIR output is not equal to 1.0 (+ or - 10%) at rated conditions.
   **   ~~~   ** ... Curve output at rated conditions = 0.152
   ** Warning ** AirLoopHVAC:UnitaryHeatPump:AirToAir:MultiSpeed - air flow rate = 0.3272168 in fan object FAN is less than the MSHP system air flow rate when cooling is required (0.3926602).
   **   ~~~   **  The MSHP system flow rate when cooling is required is reset to the fan flow rate and the simulation continues.
   **   ~~~   **  Occurs in AirLoopHVAC:UnitaryHeatPump:AirToAir:MultiSpeed = MS HEAT PUMP
   ** Warning ** AirLoopHVAC:UnitaryHeatPump:AirToAir:MultiSpeed - air flow rate = 0.3272168 in fan object FAN is less than the MSHP system air flow rate when heating is required (0.3926602).
   **   ~~~   **  The MSHP system flow rate when heating is required is reset to the fan flow rate and the simulation continues.
   **   ~~~   **  Occurs in AirLoopHVAC:UnitaryHeatPump:AirToAir:MultiSpeed = MS HEAT PUMP
   ** Warning ** MS HEAT PUMP is ready to perform cooling, but its DX cooling coil = DX_COOLING_COIL is not available at Available Schedule = COOLING_AVAIL.
   **   ~~~   ** Availability schedule returned=0.0 During Warmup, Environment=EXTREME_WINTER, at Simulation time=02/10 00:00 - 01:00
   ************* SizeFan: : Potential issue with equipment sizing for Fan:OnOff FAN
   **   ~~~   ** User-Specified Maximum Flow Rate [m3/s] = 0.32722
   **   ~~~   ** differs from Design Size Maximum Flow Rate [m3/s] = 0.57907
   **   ~~~   ** This may, or may not, indicate mismatched component sizes.
   **   ~~~   ** Verify that the value entered is intended and is consistent with other components.
   ************* SizeDXCoil: Potential issue with equipment sizing for Coil:Cooling:DX:MultiSpeed DX_COOLING_COIL
   **   ~~~   ** User-Specified Speed 4 Gross Rated Total Cooling Capacity [m3/s] = 0.39266
   **   ~~~   ** differs from Design Size Speed 4 Gross Rated Total Cooling Capacity [m3/s] = 0.57907
   **   ~~~   ** This may, or may not, indicate mismatched component sizes.
   **   ~~~   ** Verify that the value entered is intended and is consistent with other components.
   ************* SizeDXCoil: Potential issue with equipment sizing for Coil:Cooling:DX:MultiSpeed DX_COOLING_COIL
   **   ~~~   ** User-Specified Speed 3 Gross Rated Sensible Heat Ratio [m3/s] = 0.32722
   **   ~~~   ** differs from Design Size Speed 3 Gross Rated Sensible Heat Ratio [m3/s] = 0.43430
   **   ~~~   ** This may, or may not, indicate mismatched component sizes.
   **   ~~~   ** Verify that the value entered is intended and is consistent with other components.
   ************* SizeDXCoil: Potential issue with equipment sizing for Coil:Cooling:DX:MultiSpeed DX_COOLING_COIL
   **   ~~~   ** User-Specified Speed 1 Rated Air Flow Rate [m3/s] = 0.19633
   **   ~~~   ** differs from Design Size Speed 1 Rated Air Flow Rate [m3/s] = 0.14477
   **   ~~~   ** This may, or may not, indicate mismatched component sizes.
   **   ~~~   ** Verify that the value entered is intended and is consistent with other components.
   ************* SizeDXCoil: Potential issue with equipment sizing for Coil:Cooling:DX:MultiSpeed DX_COOLING_COIL
   **   ~~~   ** User-Specified Speed 3 Evaporative Condenser Effectiveness [W] = 10198.87324
   **   ~~~   ** differs from Design Size Speed 3 Evaporative Condenser Effectiveness [W] = 6499.92184
   **   ~~~   ** This may, or may not, indicate mismatched component sizes.
   **   ~~~   ** Verify that the value entered is intended and is consistent with other components.
   ************* SizeDXCoil: Potential issue with equipment sizing for Coil:Cooling:DX:MultiSpeed DX_COOLING_COIL
   **   ~~~   ** User-Specified Speed 2 Evaporative Condenser Air Flow Rate [W] = 8499.06103
   **   ~~~   ** differs from Design Size Speed 2 Evaporative Condenser Air Flow Rate [W] = 4874.94138
   **   ~~~   ** This may, or may not, indicate mismatched component sizes.
   **   ~~~   ** Verify that the value entered is intended and is consistent with other components.
   ************* SizeDXCoil: Potential issue with equipment sizing for Coil:Cooling:DX:MultiSpeed DX_COOLING_COIL
   **   ~~~   ** User-Specified Speed 1 Rated Evaporative Condenser Pump Power Consumption [W] = 5694.37089
   **   ~~~   ** differs from Design Size Speed 1 Rated Evaporative Condenser Pump Power Consumption [W] = 3249.96092
   **   ~~~   ** This may, or may not, indicate mismatched component sizes.
   **   ~~~   ** Verify that the value entered is intended and is consistent with other components.
   ************* SizeDXCoil: Potential issue with equipment sizing for Coil:Cooling:DX:MultiSpeed DX_COOLING_COIL
   **   ~~~   ** User-Specified Speed 1 Gross Rated Total Cooling Capacity [W] = 4164.53990
   **   ~~~   ** differs from Design Size Speed 1 Gross Rated Total Cooling Capacity [W] = 1624.98046
   **   ~~~   ** This may, or may not, indicate mismatched component sizes.
   **   ~~~   ** Verify that the value entered is intended and is consistent with other components.
   ************* SizeDXCoil: Potential issue with equipment sizing for Coil:Cooling:DX:MultiSpeed DX_COOLING_COIL
   **   ~~~   ** User-Specified Speed 4 Rated Sensible Heat Ratio = 0.65000
   **   ~~~   ** differs from Design Size Speed 4 Rated Sensible Heat Ratio = 0.80066
   **   ~~~   ** This may, or may not, indicate mismatched component sizes.
   **   ~~~   ** Verify that the value entered is intended and is consistent with other components.
   ************* SizeDXCoil: Potential issue with equipment sizing for Coil:Cooling:DX:MultiSpeed DX_COOLING_COIL
   **   ~~~   ** User-Specified Speed 2 Rated Sensible Heat Ratio = 0.78000
   **   ~~~   ** differs from Design Size Speed 2 Rated Sensible Heat Ratio = 0.65000
   **   ~~~   ** This may, or may not, indicate mismatched component sizes.
   **   ~~~   ** Verify that the value entered is intended and is consistent with other components.
   ************* SizeDXCoil: Potential issue with equipment sizing for Coil:Cooling:DX:MultiSpeed DX_COOLING_COIL
   **   ~~~   ** User-Specified Speed 1 Rated Sensible Heat Ratio = 0.79500
   **   ~~~   ** differs from Design Size Speed 1 Rated Sensible Heat Ratio = 0.65000
   **   ~~~   ** This may, or may not, indicate mismatched component sizes.
   **   ~~~   ** Verify that the value entered is intended and is consistent with other components.
   ** Warning ** For object = Coil:Cooling:DX:MultiSpeed, name = "DX_COOLING_COIL"
   **   ~~~   ** Calculated outlet air relative humidity greater than 1. The combination of
   **   ~~~   ** rated air volume flow rate, total cooling capacity and sensible heat ratio yields coil exiting
   **   ~~~   ** air conditions above the saturation curve. Possible fixes are to reduce the rated total cooling
   **   ~~~   ** capacity, increase the rated air volume flow rate, or reduce the rated sensible heat ratio for this coil.
   **   ~~~   ** If autosizing, it is recommended that all three of these values be autosized.
   **   ~~~   ** ...Inputs used for calculating cooling coil bypass factor.
   **   ~~~   ** ...Inlet Air Temperature     = 26.67 C
   **   ~~~   ** ...Outlet Air Temperature    = 12.41 C
   **   ~~~   ** ...Inlet Air Humidity Ratio  = 1.118470E-002 kgWater/kgDryAir
   **   ~~~   ** ...Outlet Air Humidity Ratio = 9.710800E-003 kgWater/kgDryAir
   **   ~~~   ** ...Total Cooling Capacity used in calculation = 4164.54 W
   **   ~~~   ** ...Air Mass Flow Rate used in calculation     = 0.227104 kg/s
   **   ~~~   ** ...Air Volume Flow Rate used in calculation   = 0.196330 m3/s
   **   ~~~   **  During Warmup, Environment=EXTREME_WINTER, at Simulation time=02/10 00:00 - 01:00
   **   ~~~   ** CalcCBF: SHR adjusted to achieve valid outlet air properties and the simulation continues.
   **   ~~~   ** CalcCBF: initial SHR = 0.79500
   **   ~~~   ** CalcCBF: adjusted SHR = 0.75351
   ** Warning ** Sizing: Coil:Cooling:DX:MultiSpeed "DX_COOLING_COIL": Rated air volume flow rate per watt of rated total cooling capacity is out of range at speed 3
   **   ~~~   ** Min Rated Vol Flow Per Watt=[4.027E-005], Rated Vol Flow Per Watt=[3.850E-005], Max Rated Vol Flow Per Watt=[6.041E-005]. See Input Output Reference Manual for valid range.
   ** Warning ** Sizing: Coil:Cooling:DX:MultiSpeed "DX_COOLING_COIL": Rated air volume flow rate per watt of rated total cooling capacity is out of range at speed 4
   **   ~~~   ** Min Rated Vol Flow Per Watt=[4.027E-005], Rated Vol Flow Per Watt=[3.850E-005], Max Rated Vol Flow Per Watt=[6.041E-005]. See Input Output Reference Manual for valid range.
   ************* SizeDXCoil: Potential issue with equipment sizing for Coil:Heating:DX:MultiSpeed DX_HEATING_COIL
   **   ~~~   ** User-Specified Speed 3 Rated Waste Heat Fraction of Power Input [m3/s] = 0.39266
   **   ~~~   ** differs from Design Size Speed 3 Rated Waste Heat Fraction of Power Input [m3/s] = 0.57907
   **   ~~~   ** This may, or may not, indicate mismatched component sizes.
   **   ~~~   ** Verify that the value entered is intended and is consistent with other components.
   ************* SizeDXCoil: Potential issue with equipment sizing for Coil:Heating:DX:MultiSpeed DX_HEATING_COIL
   **   ~~~   ** User-Specified Speed 3 Gross Rated Heating Capacity [m3/s] = 0.32722
   **   ~~~   ** differs from Design Size Speed 3 Gross Rated Heating Capacity [m3/s] = 0.43430
   **   ~~~   ** This may, or may not, indicate mismatched component sizes.
   **   ~~~   ** Verify that the value entered is intended and is consistent with other components.
   ************* SizeDXCoil: Potential issue with equipment sizing for Coil:Heating:DX:MultiSpeed DX_HEATING_COIL
   **   ~~~   ** User-Specified Speed 1 Rated Air Flow Rate [m3/s] = 0.19633
   **   ~~~   ** differs from Design Size Speed 1 Rated Air Flow Rate [m3/s] = 0.14477
   **   ~~~   ** This may, or may not, indicate mismatched component sizes.
   **   ~~~   ** Verify that the value entered is intended and is consistent with other components.
   ************* SizeDXCoil: Potential issue with equipment sizing for Coil:Heating:DX:MultiSpeed DX_HEATING_COIL
   **   ~~~   ** User-Specified 2017 Speed 3 Rated Supply Air Fan Power Per Volume Flow Rate [W] = 8088.76153
   **   ~~~   ** differs from Design Size 2017 Speed 3 Rated Supply Air Fan Power Per Volume Flow Rate [W] = 6499.92184
   **   ~~~   ** This may, or may not, indicate mismatched component sizes.
   **   ~~~   ** Verify that the value entered is intended and is consistent with other components.
   ************* SizeDXCoil: Potential issue with equipment sizing for Coil:Heating:DX:MultiSpeed DX_HEATING_COIL
   **   ~~~   ** User-Specified 2023 Speed 2 Rated Supply Air Fan Power Per Volume Flow Rate [W] = 6740.63461
   **   ~~~   ** differs from Design Size 2023 Speed 2 Rated Supply Air Fan Power Per Volume Flow Rate [W] = 4874.94138
   **   ~~~   ** This may, or may not, indicate mismatched component sizes.
   **   ~~~   ** Verify that the value entered is intended and is consistent with other components.
   ************* SizeDXCoil: Potential issue with equipment sizing for Coil:Heating:DX:MultiSpeed DX_HEATING_COIL
   **   ~~~   ** User-Specified Speed 1 Rated Waste Heat Fraction of Power Input [W] = 4516.22519
   **   ~~~   ** differs from Design Size Speed 1 Rated Waste Heat Fraction of Power Input [W] = 3249.96092
   **   ~~~   ** This may, or may not, indicate mismatched component sizes.
   **   ~~~   ** Verify that the value entered is intended and is consistent with other components.
   ************* SizeDXCoil: Potential issue with equipment sizing for Coil:Heating:DX:MultiSpeed DX_HEATING_COIL
   **   ~~~   ** User-Specified Speed 1 Gross Rated Heating Capacity [W] = 3302.91096
   **   ~~~   ** differs from Design Size Speed 1 Gross Rated Heating Capacity [W] = 1624.98046
   **   ~~~   ** This may, or may not, indicate mismatched component sizes.
   **   ~~~   ** Verify that the value entered is intended and is consistent with other components.
   ** Warning ** Coil:Heating:DX:MultiSpeed DX_HEATING_COIL: Rated air volume flow rate per watt of rated total heating capacity is out of range at speed 2
   **   ~~~   ** Min Rated Vol Flow Per Watt=[4.027E-005], Rated Vol Flow Per Watt=[6.520E-005], Max Rated Vol Flow Per Watt=[6.041E-005]. See Input Output Reference Manual for valid range.
   ************* Testing Individual Branch Integrity
   ************* All Branches passed integrity testing
   ************* Testing Individual Supply Air Path Integrity
   ************* All Supply Air Paths passed integrity testing
   ************* Testing Individual Return Air Path Integrity
   ************* All Return Air Paths passed integrity testing
   ************* No node connection errors were found.
   ************* Beginning Simulation
   ************* Simulation Error Summary *************
   ** Warning ** The following Report Variables were requested but not generated -- check.rdd file
   **   ~~~   ** Either the IDF did not contain these elements, the variable name is misspelled,
   **   ~~~   ** or the requested variable is an advanced output which requires Output : Diagnostics, DisplayAdvancedReportVariables;
   ************* Key=*, VarName=BASEBOARD ELECTRICITY RATE, Frequency=Hourly
   ************* Key=*, VarName=HEATING COIL NATURALGAS RATE, Frequency=Hourly
   ************* Key=*, VarName=HEATING COIL PROPANE RATE, Frequency=Hourly
   ************* There are 40 unused schedules in input.
   ************* There are 395 unused week schedules in input.
   ************* There are 409 unused day schedules in input.
   ************* Use Output:Diagnostics,DisplayUnusedSchedules; to see them.
   *************
   ************* ===== Recurring Error Summary =====
   ************* The following recurring error messages occurred.
   *************
   *************  ** Warning ** MS HEAT PUMP: Cooling coil is still not available ...
   *************  **   ~~~   **   This error occurred 24 total times;
   *************  **   ~~~   **   during Warmup 24 times;
   *************  **   ~~~   **   during Sizing 0 times.
   *************  **   ~~~   **   Max=0.  Min=0.
   *************
   *************
   ************* ===== Final Error Summary =====
   ************* The following error categories occurred.  Consider correcting or noting.
   ************* Loads Initialization did not Converge
   ************* ..1) very high thermal mass such as very thick concrete (solution: increase max number of warmup
   ************* ..   days in the BUILDING object);
   ************* ..2) moderate mass and inadequate space conditioning such that the building keeps getting warmer
   ************* ..   and warmer on successive days (solution: add HVAC, check building thermal properties,
   ************* ..   check if infiltration is included, make sure HVAC properly controlled);
   ************* ..3) a soil layer modeled below the concrete slab - (solution remove this layer and read about
   ************* ..   ground temperatures in the Auxiliary Programs document).
   ************* ..4) unreasonable (too small) limits in the BUILDING object for temperature (.4 default) or
   ************* ..   loads tolerances (.04 default)
   ************* Nominally Unused Constructions
   ************* ..The nominally unused constructions warning is provided to alert you to potential conditions that can cause
   ************* ..extra time during simulation. Each construction is calculated by the algorithm indicated in the HeatBalanceAlgorithm
   ************* ..object. You may remove the constructions indicated (when you use the DisplayExtraWarnings option).
   *************
   ************* EnergyPlus Warmup Error Summary. During Warmup: 0 Warning; 0 Severe Errors.
   ************* EnergyPlus Sizing Error Summary. During Sizing: 4 Warning; 1 Severe Errors.
   ************* EnergyPlus Completed Successfully-- 46 Warning; 1 Severe Errors; Elapsed Time=00hr 00min  0.62sec
