Program Version,EnergyPlus, Version 22.2.0-c249759bad, YMD=2023.09.01 19:20,
   ************* Beginning Zone Sizing Calculations
   ** Warning ** ProcessScheduleInput: Schedule:Constant="ALWAYS ON DISCRETE", Schedule Type Limits Name="ONOFF" not found -- will not be validated
   ** Warning ** Foundation:Kiva="KIVA FOUNDATION", no Interior Horizontal Insulation Material Name defined
   **   ~~~   ** Interior Horizontal Insulation Depth will not be used.
   ** Warning ** CheckUsedConstructions: There are 15 nominally unused constructions in input.
   **   ~~~   ** Each Unused construction is shown.
   ************* Construction=INTERIOR FLOOR
   ************* Construction=INTERIOR WINDOW
   ************* Construction=EXTERIOR DOOR
   ************* Construction=INTERIOR DOOR
   ************* Construction=GABLE CONSTRUCTION
   ************* Construction=CRAWL_FLOOR
   ************* Construction=INSULATED PIPE
   ************* Construction=PLAIN PIPE
   ************* Construction=TDD PIPE
   ************* Construction=TDD DOME
   ************* Construction=TDD DIFFUSER
   ************* Construction=CRAWL WALL
   ************* Construction=CEILING-FLOOR-LAYER
   ************* Construction=SLAB CONSTRUCTION W FULL R10 INSULATION
   ************* Construction=SLAB CONSTRUCTION W FULL R5 INSULATION
   ** Warning ** GetDXCoils: Coil:Heating:DX:SingleSpeed="DX_HEATING_COIL" curve values
   **   ~~~   ** ... Defrost Energy Input Ratio Function of Temperature Curve Name = DEFROSTEIR output is not equal to 1.0 (+ or - 10%) at rated conditions.
   **   ~~~   ** ... Curve output at rated conditions = 0.152
   ************* Beginning System Sizing Calculations
   ************* Beginning Plant Sizing Calculations
   ** Warning ** Coil:WaterHeating:AirToWaterHeatPump:Wrapped "HEAT PUMP WATER HEATER EVAPORATOR": Rated air volume flow rate per watt of rated total water heating capacity is out of range
   **   ~~~   ** Min Rated Vol Flow Per Watt=[4.027E-005], Rated Vol Flow Per Watt=[1.510E-004], Max Rated Vol Flow Per Watt=[8.056E-005]. See Input-Output Reference Manual for valid range.
   ************* SizeFan: : Potential issue with equipment sizing for Fan:OnOff HEAT PUMP WATER HEATER FAN
   **   ~~~   ** User-Specified Maximum Flow Rate [m3/s] = 0.22653
   **   ~~~   ** differs from Design Size Maximum Flow Rate [m3/s] = 7.55250E-002
   **   ~~~   ** This may, or may not, indicate mismatched component sizes.
   **   ~~~   ** Verify that the value entered is intended and is consistent with other components.
   ** Warning ** Water heater = WATER HEATER TANK:  Recovery Efficiency and Energy Factor could not be calculated during the test for standard ratings
   **   ~~~   ** Setpoint was never recovered and/or heater never turned on
   ** Warning ** Check input. Pump nominal power or motor efficiency is set to 0, for pump=MAINS PRESSURE
   ** Warning ** Output:Meter: invalid Key Name="ELECTRIC_RANGE:INTERIOREQUIPMENT:ELECTRICITY" - not found.
   ** Warning ** Output:Meter: invalid Key Name="ELECTRIC_DRYER:INTERIOREQUIPMENT:ELECTRICITY" - not found.
   ** Warning ** Output:Meter: invalid Key Name="HEATRECOVERY:ELECTRICITY" - not found.
   ** Warning ** Output:Meter: invalid Key Name="HEATING:NATURALGAS" - not found.
   ** Warning ** Output:Meter: invalid Key Name="WATERSYSTEMS:NATURALGAS" - not found.
   ** Warning ** Output:Meter: invalid Key Name="PROPANE:FACILITY" - not found.
   ** Warning ** Output:Meter: invalid Key Name="HEATING:PROPANE" - not found.
   ************* Testing Individual Branch Integrity
   ************* All Branches passed integrity testing
   ************* Testing Individual Supply Air Path Integrity
   ************* All Supply Air Paths passed integrity testing
   ************* Testing Individual Return Air Path Integrity
   ************* All Return Air Paths passed integrity testing
   ************* No node connection errors were found.
   ************* Beginning Simulation
   ** Warning ** AirflowNetwork::Solver::validate_distribution: Heat pump water heater is simulated along with an AirflowNetwork but is not included in the AirflowNetwork.
   ** Warning ** CalcEquipmentFlowRates: "TOTAL HOT WATER LOAD" - Target water temperature is greater than the hot water temperature by (0.92 C)
   **   ~~~   **  Environment=EXTREME_WINTER, at Simulation time=01/13 06:45 - 07:00
   **   ~~~   ** ...target water temperature     = 53.33 C
   **   ~~~   ** ...hot water temperature        = 52.41 C
   **   ~~~   ** ...Target water temperature should be less than or equal to the hot water temperature. Verify temperature setpoints and schedules.
   ** Warning ** SimHVAC: Maximum iterations (20) exceeded for all HVAC loops, at EXTREME_WINTER, 01/17 09:15 - 09:17
   **   ~~~   ** The solution for one or more of the Air Loop HVAC systems did not appear to converge
   **   ~~~   ** Air System Named = CENTRAL SYSTEM did not converge for mass flow rate
   **   ~~~   ** Check values should be zero. Most Recent values listed first.
   **   ~~~   ** Demand-to-Supply interface mass flow rate check value iteration history trace: 6.453790E-002,6.453790E-002,6.453790E-002,6.453790E-002,6.453790E-002,6.453790E-002,6.453790E-002,6.453790E-002,6.453790E-002,6.453790E-002,
   **   ~~~   ** Supply-to-demand interface deck 1 mass flow rate check value iteration history trace: 6.453790E-002,6.453790E-002,6.453790E-002,6.453790E-002,6.453790E-002,6.453790E-002,6.453790E-002,6.453790E-002,6.453790E-002,6.453790E-002,
   **   ~~~   ** Air System Named = CENTRAL SYSTEM did not converge for energy
   **   ~~~   ** Check values should be zero. Most Recent values listed first.
   **   ~~~   ** Demand-to-Supply interface energy check value iteration history trace: 1276.089481,1276.089481,1276.089481,1276.089481,1276.089481,1276.089481,1276.089481,1276.089481,1276.089481,1276.089481,
   **   ~~~   ** Supply-to-demand interface deck 1 energy check value iteration history trace: 2144.429345,2144.429345,2144.429345,2144.429345,2144.429345,2144.429345,2144.429345,2144.429345,2144.429344,2144.429344,
   ** Warning ** SimHVAC: Maximum iterations (20) exceeded for all HVAC loops, at ANNUAL, 01/08 08:45 - 08:52
   **   ~~~   ** The solution for one or more of the Air Loop HVAC systems did not appear to converge
   **   ~~~   ** Air System Named = CENTRAL SYSTEM did not converge for mass flow rate
   **   ~~~   ** Check values should be zero. Most Recent values listed first.
   **   ~~~   ** Demand-to-Supply interface mass flow rate check value iteration history trace: 5.163709E-002,5.163709E-002,5.163709E-002,5.163709E-002,5.163709E-002,5.163709E-002,5.163709E-002,5.163709E-002,5.163709E-002,5.163709E-002,
   **   ~~~   ** Supply-to-demand interface deck 1 mass flow rate check value iteration history trace: 5.163709E-002,5.163709E-002,5.163709E-002,5.163709E-002,5.163709E-002,5.163709E-002,5.163709E-002,5.163709E-002,5.163709E-002,5.163709E-002,
   **   ~~~   ** Air System Named = CENTRAL SYSTEM did not converge for energy
   **   ~~~   ** Check values should be zero. Most Recent values listed first.
   **   ~~~   ** Demand-to-Supply interface energy check value iteration history trace: 1020.465676,1020.465676,1020.465676,1020.465676,1020.465676,1020.465676,1020.465676,1020.465676,1020.465676,1020.465676,
   **   ~~~   ** Supply-to-demand interface deck 1 energy check value iteration history trace: 1883.667136,1883.667136,1883.667136,1883.667136,1883.667136,1883.667135,1883.667135,1883.667135,1883.667135,1883.667135,
   ** Warning ** SimHVAC: Maximum iterations (20) exceeded for all HVAC loops, at ANNUAL, 01/14 19:15 - 19:22
   **   ~~~   ** The solution for one or more of the Air Loop HVAC systems did not appear to converge
   **   ~~~   ** Air System Named = CENTRAL SYSTEM did not converge for mass flow rate
   **   ~~~   ** Check values should be zero. Most Recent values listed first.
   **   ~~~   ** Demand-to-Supply interface mass flow rate check value iteration history trace: 6.947440E-002,6.947440E-002,6.947440E-002,6.947440E-002,6.947440E-002,6.947440E-002,6.947440E-002,6.947440E-002,6.947440E-002,6.947440E-002,
   **   ~~~   ** Supply-to-demand interface deck 1 mass flow rate check value iteration history trace: 6.947440E-002,6.947440E-002,6.947440E-002,6.947440E-002,6.947440E-002,6.947440E-002,6.947440E-002,6.947440E-002,6.947440E-002,6.947440E-002,
   **   ~~~   ** Air System Named = CENTRAL SYSTEM did not converge for energy
   **   ~~~   ** Check values should be zero. Most Recent values listed first.
   **   ~~~   ** Demand-to-Supply interface energy check value iteration history trace: 1376.373157,1376.373157,1376.373157,1376.373157,1376.373157,1376.373157,1376.373157,1376.373157,1376.373157,1376.373156,
   **   ~~~   ** Supply-to-demand interface deck 1 energy check value iteration history trace: 2343.550360,2343.550359,2343.550359,2343.550359,2343.550359,2343.550359,2343.550359,2343.550359,2343.550359,2343.550358,
   ** Warning ** SimHVAC: Maximum iterations (20) exceeded for all HVAC loops, at ANNUAL, 03/08 08:08 - 08:15
   **   ~~~   ** The solution for one or more of the Air Loop HVAC systems did not appear to converge
   **   ~~~   ** Air System Named = CENTRAL SYSTEM did not converge for mass flow rate
   **   ~~~   ** Check values should be zero. Most Recent values listed first.
   **   ~~~   ** Demand-to-Supply interface mass flow rate check value iteration history trace: 3.960546E-002,3.960546E-002,3.960546E-002,3.960546E-002,3.960546E-002,3.960546E-002,3.960546E-002,3.960546E-002,3.960546E-002,3.960546E-002,
   **   ~~~   ** Supply-to-demand interface deck 1 mass flow rate check value iteration history trace: 3.960546E-002,3.960546E-002,3.960546E-002,3.960546E-002,3.960546E-002,3.960546E-002,3.960546E-002,3.960546E-002,3.960546E-002,3.960546E-002,
   **   ~~~   ** Air System Named = CENTRAL SYSTEM did not converge for energy
   **   ~~~   ** Check values should be zero. Most Recent values listed first.
   **   ~~~   ** Demand-to-Supply interface energy check value iteration history trace: 935.539650,935.539650,935.539650,935.539651,935.539651,935.539651,935.539651,935.539651,935.539651,935.539651,
   **   ~~~   ** Supply-to-demand interface deck 1 energy check value iteration history trace: 569.471867,569.471867,569.471867,569.471867,569.471867,569.471867,569.471868,569.471868,569.471868,569.471868,
   ** Warning ** SimHVAC: Maximum iterations (20) exceeded for all HVAC loops, at ANNUAL, 03/08 10:00 - 10:15
   **   ~~~   ** The solution for one or more of the Air Loop HVAC systems did not appear to converge
   **   ~~~   ** Air System Named = CENTRAL SYSTEM did not converge for mass flow rate
   **   ~~~   ** Check values should be zero. Most Recent values listed first.
   **   ~~~   ** Demand-to-Supply interface mass flow rate check value iteration history trace: 5.538061E-002,5.538061E-002,5.538061E-002,5.538061E-002,5.538061E-002,5.538061E-002,5.538061E-002,5.538061E-002,5.538061E-002,5.538061E-002,
   **   ~~~   ** Supply-to-demand interface deck 1 mass flow rate check value iteration history trace: 5.538061E-002,5.538061E-002,5.538061E-002,5.538061E-002,5.538061E-002,5.538061E-002,5.538061E-002,5.538061E-002,5.538061E-002,5.538061E-002,
   **   ~~~   ** Air System Named = CENTRAL SYSTEM did not converge for energy
   **   ~~~   ** Check values should be zero. Most Recent values listed first.
   **   ~~~   ** Demand-to-Supply interface energy check value iteration history trace: 1307.532213,1307.532213,1307.532213,1307.532213,1307.532213,1307.532214,1307.532214,1307.532214,1307.532214,1307.532214,
   **   ~~~   ** Supply-to-demand interface deck 1 energy check value iteration history trace: 781.291384,781.291384,781.291384,781.291384,781.291384,781.291384,781.291384,781.291384,781.291384,781.291384,
   ** Warning ** SimHVAC: Maximum iterations (20) exceeded for all HVAC loops, at ANNUAL, 03/09 07:15 - 07:30
   **   ~~~   ** The solution for one or more of the Air Loop HVAC systems did not appear to converge
   **   ~~~   ** Air System Named = CENTRAL SYSTEM did not converge for mass flow rate
   **   ~~~   ** Check values should be zero. Most Recent values listed first.
   **   ~~~   ** Demand-to-Supply interface mass flow rate check value iteration history trace: 0.132243,0.132243,0.132243,0.132243,0.132243,0.132243,0.132243,0.132243,0.132243,0.132243,
   **   ~~~   ** Supply-to-demand interface deck 1 mass flow rate check value iteration history trace: 0.132243,0.132243,0.132243,0.132243,0.132243,0.132243,0.132243,0.132243,0.132243,0.132243,
   **   ~~~   ** Air System Named = CENTRAL SYSTEM did not converge for energy
   **   ~~~   ** Check values should be zero. Most Recent values listed first.
   **   ~~~   ** Demand-to-Supply interface energy check value iteration history trace: 3154.592777,3154.592778,3154.592778,3154.592778,3154.592779,3154.592779,3154.592779,3154.592780,3154.592780,3154.592780,
   **   ~~~   ** Supply-to-demand interface deck 1 energy check value iteration history trace: 1941.275893,1941.275893,1941.275894,1941.275894,1941.275894,1941.275894,1941.275894,1941.275895,1941.275895,1941.275895,
   ** Warning ** SimHVAC: Maximum iterations (20) exceeded for all HVAC loops, at ANNUAL, 03/09 11:45 - 12:00
   **   ~~~   ** The solution for one or more of the Air Loop HVAC systems did not appear to converge
   **   ~~~   ** Air System Named = CENTRAL SYSTEM did not converge for mass flow rate
   **   ~~~   ** Check values should be zero. Most Recent values listed first.
   **   ~~~   ** Demand-to-Supply interface mass flow rate check value iteration history trace: 0.111956,0.111956,0.111956,0.111956,0.111956,0.111956,0.111956,0.111956,0.111956,0.111956,
   **   ~~~   ** Supply-to-demand interface deck 1 mass flow rate check value iteration history trace: 0.111956,0.111956,0.111956,0.111956,0.111956,0.111956,0.111956,0.111956,0.111956,0.111956,
   **   ~~~   ** Air System Named = CENTRAL SYSTEM did not converge for energy
   **   ~~~   ** Check values should be zero. Most Recent values listed first.
   **   ~~~   ** Demand-to-Supply interface energy check value iteration history trace: 2648.407974,2648.407974,2648.407975,2648.407976,2648.407977,2648.407978,2648.407979,2648.407980,2648.407981,2648.407982,
   **   ~~~   ** Supply-to-demand interface deck 1 energy check value iteration history trace: 1742.047934,1742.047934,1742.047935,1742.047936,1742.047936,1742.047937,1742.047937,1742.047938,1742.047939,1742.047939,
   ** Warning ** SimHVAC: Maximum iterations (20) exceeded for all HVAC loops, at ANNUAL, 03/10 09:00 - 09:15
   **   ~~~   ** The solution for one or more of the Air Loop HVAC systems did not appear to converge
   **   ~~~   ** Air System Named = CENTRAL SYSTEM did not converge for mass flow rate
   **   ~~~   ** Check values should be zero. Most Recent values listed first.
   **   ~~~   ** Demand-to-Supply interface mass flow rate check value iteration history trace: 0.115921,0.115921,0.115921,0.115921,0.115921,0.115921,0.115921,0.115921,0.115921,0.115921,
   **   ~~~   ** Supply-to-demand interface deck 1 mass flow rate check value iteration history trace: 0.115921,0.115921,0.115921,0.115921,0.115921,0.115921,0.115921,0.115921,0.115921,0.115921,
   **   ~~~   ** Air System Named = CENTRAL SYSTEM did not converge for energy
   **   ~~~   ** Check values should be zero. Most Recent values listed first.
   **   ~~~   ** Demand-to-Supply interface energy check value iteration history trace: 2739.504118,2739.504119,2739.504120,2739.504122,2739.504123,2739.504124,2739.504125,2739.504126,2739.504128,2739.504129,
   **   ~~~   ** Supply-to-demand interface deck 1 energy check value iteration history trace: 1628.782819,1628.782820,1628.782821,1628.782821,1628.782822,1628.782823,1628.782824,1628.782824,1628.782825,1628.782826,
   ** Warning ** SimHVAC: Maximum iterations (20) exceeded for all HVAC loops, at ANNUAL, 03/13 09:15 - 09:30
   **   ~~~   ** The solution for one or more of the Air Loop HVAC systems did not appear to converge
   **   ~~~   ** Air System Named = CENTRAL SYSTEM did not converge for mass flow rate
   **   ~~~   ** Check values should be zero. Most Recent values listed first.
   **   ~~~   ** Demand-to-Supply interface mass flow rate check value iteration history trace: 0.159338,0.159338,0.159338,0.159338,0.159338,0.159338,0.159338,0.159338,0.159338,0.159338,
   **   ~~~   ** Supply-to-demand interface deck 1 mass flow rate check value iteration history trace: 0.159338,0.159338,0.159338,0.159338,0.159338,0.159338,0.159338,0.159338,0.159338,0.159338,
   **   ~~~   ** Air System Named = CENTRAL SYSTEM did not converge for energy
   **   ~~~   ** Check values should be zero. Most Recent values listed first.
   **   ~~~   ** Demand-to-Supply interface energy check value iteration history trace: 3856.758042,3856.758042,3856.758042,3856.758043,3856.758043,3856.758043,3856.758044,3856.758044,3856.758044,3856.758044,
   **   ~~~   ** Supply-to-demand interface deck 1 energy check value iteration history trace: 2123.115755,2123.115755,2123.115755,2123.115755,2123.115756,2123.115756,2123.115756,2123.115756,2123.115756,2123.115756,
   ** Warning ** SimHVAC: Maximum iterations (20) exceeded for all HVAC loops, at ANNUAL, 11/27 09:00 - 09:08
   **   ~~~   ** The solution for one or more of the Air Loop HVAC systems did not appear to converge
   **   ~~~   ** Air System Named = CENTRAL SYSTEM did not converge for mass flow rate
   **   ~~~   ** Check values should be zero. Most Recent values listed first.
   **   ~~~   ** Demand-to-Supply interface mass flow rate check value iteration history trace: 6.023966E-002,6.023966E-002,6.023966E-002,6.023966E-002,6.023966E-002,6.023966E-002,6.023966E-002,6.023966E-002,6.023966E-002,6.023966E-002,
   **   ~~~   ** Supply-to-demand interface deck 1 mass flow rate check value iteration history trace: 6.023966E-002,6.023966E-002,6.023966E-002,6.023966E-002,6.023966E-002,6.023966E-002,6.023966E-002,6.023966E-002,6.023966E-002,6.023966E-002,
   **   ~~~   ** Air System Named = CENTRAL SYSTEM did not converge for energy
   **   ~~~   ** Check values should be zero. Most Recent values listed first.
   **   ~~~   ** Demand-to-Supply interface energy check value iteration history trace: 1170.179538,1170.179538,1170.179537,1170.179537,1170.179537,1170.179537,1170.179537,1170.179536,1170.179536,1170.179536,
   **   ~~~   ** Supply-to-demand interface deck 1 energy check value iteration history trace: 2079.243765,2079.243765,2079.243765,2079.243764,2079.243764,2079.243764,2079.243763,2079.243763,2079.243762,2079.243762,
   ** Warning ** SimHVAC: Maximum iterations (20) exceeded for all HVAC loops, at ANNUAL, 12/11 20:30 - 20:45
   **   ~~~   ** The solution for one or more of the Air Loop HVAC systems did not appear to converge
   **   ~~~   ** Air System Named = CENTRAL SYSTEM did not converge for mass flow rate
   **   ~~~   ** Check values should be zero. Most Recent values listed first.
   **   ~~~   ** Demand-to-Supply interface mass flow rate check value iteration history trace: 6.183262E-002,6.183262E-002,6.183262E-002,6.183262E-002,6.183262E-002,6.183262E-002,6.183262E-002,6.183262E-002,6.183262E-002,6.183262E-002,
   **   ~~~   ** Supply-to-demand interface deck 1 mass flow rate check value iteration history trace: 6.183262E-002,6.183262E-002,6.183262E-002,6.183262E-002,6.183262E-002,6.183262E-002,6.183262E-002,6.183262E-002,6.183262E-002,6.183262E-002,
   **   ~~~   ** Air System Named = CENTRAL SYSTEM did not converge for energy
   **   ~~~   ** Check values should be zero. Most Recent values listed first.
   **   ~~~   ** Demand-to-Supply interface energy check value iteration history trace: 1447.235926,1447.235926,1447.235926,1447.235926,1447.235926,1447.235927,1447.235927,1447.235927,1447.235927,1447.235927,
   **   ~~~   ** Supply-to-demand interface deck 1 energy check value iteration history trace: 592.080134,592.080134,592.080134,592.080134,592.080134,592.080134,592.080134,592.080134,592.080135,592.080135,
   ** Warning ** SimHVAC: Maximum iterations (20) exceeded for all HVAC loops, at ANNUAL, 12/13 18:53 - 19:00
   **   ~~~   ** The solution for one or more of the Air Loop HVAC systems did not appear to converge
   **   ~~~   ** Air System Named = CENTRAL SYSTEM did not converge for mass flow rate
   **   ~~~   ** Check values should be zero. Most Recent values listed first.
   **   ~~~   ** Demand-to-Supply interface mass flow rate check value iteration history trace: 0.135148,0.135148,0.135148,0.135148,0.135148,0.135148,0.135148,0.135148,0.135148,0.135148,
   **   ~~~   ** Supply-to-demand interface deck 1 mass flow rate check value iteration history trace: 0.135148,0.135148,0.135148,0.135148,0.135148,0.135148,0.135148,0.135148,0.135148,0.135148,
   **   ~~~   ** Air System Named = CENTRAL SYSTEM did not converge for energy
   **   ~~~   ** Check values should be zero. Most Recent values listed first.
   **   ~~~   ** Demand-to-Supply interface energy check value iteration history trace: 3184.242924,3184.242924,3184.242924,3184.242925,3184.242925,3184.242925,3184.242926,3184.242926,3184.242926,3184.242927,
   **   ~~~   ** Supply-to-demand interface deck 1 energy check value iteration history trace: 1793.864520,1793.864520,1793.864520,1793.864520,1793.864521,1793.864521,1793.864521,1793.864521,1793.864521,1793.864522,
   ** Warning ** SimHVAC: Maximum iterations (20) exceeded for all HVAC loops, at ANNUAL, 12/15 08:53 - 08:56
   **   ~~~   ** The solution for one or more of the Air Loop HVAC systems did not appear to converge
   **   ~~~   ** Air System Named = CENTRAL SYSTEM did not converge for mass flow rate
   **   ~~~   ** Check values should be zero. Most Recent values listed first.
   **   ~~~   ** Demand-to-Supply interface mass flow rate check value iteration history trace: 0.267515,0.267515,0.267515,0.267515,0.267515,0.267515,0.267515,0.267515,0.267515,0.267515,
   **   ~~~   ** Supply-to-demand interface deck 1 mass flow rate check value iteration history trace: 0.267515,0.267515,0.267515,0.267515,0.267515,0.267515,0.267515,0.267515,0.267515,0.267515,
   **   ~~~   ** Air System Named = CENTRAL SYSTEM did not converge for energy
   **   ~~~   ** Check values should be zero. Most Recent values listed first.
   **   ~~~   ** Demand-to-Supply interface energy check value iteration history trace: 6382.106936,6382.106938,6382.106940,6382.106942,6382.106944,6382.106945,6382.106947,6382.106949,6382.106951,6382.106953,
   **   ~~~   ** Supply-to-demand interface deck 1 energy check value iteration history trace: 3533.715779,3533.715780,3533.715781,3533.715782,3533.715784,3533.715785,3533.715786,3533.715787,3533.715788,3533.715789,
   ** Warning ** SimHVAC: Maximum iterations (20) exceeded for all HVAC loops, at ANNUAL, 12/16 00:53 - 01:00
   **   ~~~   ** The solution for one or more of the Air Loop HVAC systems did not appear to converge
   **   ~~~   ** Air System Named = CENTRAL SYSTEM did not converge for mass flow rate
   **   ~~~   ** Check values should be zero. Most Recent values listed first.
   **   ~~~   ** Demand-to-Supply interface mass flow rate check value iteration history trace: 6.193414E-002,6.193414E-002,6.193414E-002,6.193414E-002,6.193414E-002,6.193414E-002,6.193414E-002,6.193414E-002,6.193414E-002,6.193414E-002,
   **   ~~~   ** Supply-to-demand interface deck 1 mass flow rate check value iteration history trace: 6.193414E-002,6.193414E-002,6.193414E-002,6.193414E-002,6.193414E-002,6.193414E-002,6.193414E-002,6.193414E-002,6.193414E-002,6.193414E-002,
   **   ~~~   ** Air System Named = CENTRAL SYSTEM did not converge for energy
   **   ~~~   ** Check values should be zero. Most Recent values listed first.
   **   ~~~   ** Demand-to-Supply interface energy check value iteration history trace: 1528.646809,1528.646809,1528.646810,1528.646810,1528.646811,1528.646811,1528.646812,1528.646812,1528.646813,1528.646813,
   **   ~~~   ** Supply-to-demand interface deck 1 energy check value iteration history trace: 764.713737,764.713737,764.713737,764.713738,764.713738,764.713738,764.713738,764.713739,764.713739,764.713739,
   ************* Simulation Error Summary *************
   ** Warning ** The following Report Variables were requested but not generated -- check.rdd file
   **   ~~~   ** Either the IDF did not contain these elements, the variable name is misspelled,
   **   ~~~   ** or the requested variable is an advanced output which requires Output : Diagnostics, DisplayAdvancedReportVariables;
   ************* Key=*, VarName=BASEBOARD TOTAL HEATING ENERGY, Frequency=
   ************* Key=*, VarName=WATER HEATER NATURALGAS ENERGY, Frequency=
   ************* Key=*, VarName=COOLING COIL TOTAL HEATING ENERGY, Frequency=
   ************* There are 34 unused schedules in input.
   ************* There are 388 unused week schedules in input.
   ************* There are 397 unused day schedules in input.
   ************* Use Output:Diagnostics,DisplayUnusedSchedules; to see them.
   *************
   ************* ===== Recurring Error Summary =====
   ************* The following recurring error messages occurred.
   *************
   *************  ** Warning ** "TOTAL HOT WATER LOAD" - Target water temperature should be less than or equal to the hot water temperature error continues...
   *************  **   ~~~   **   This error occurred 110679 total times;
   *************  **   ~~~   **   during Warmup 0 times;
   *************  **   ~~~   **   during Sizing 0 times.
   *************  **   ~~~   **   Max=8.819247  Min=2.496699E-004
   *************
   *************  ** Warning ** SimHVAC: Exceeding Maximum iterations for all HVAC loops, during ANNUAL continues
   *************  **   ~~~   **   This error occurred 1 total times;
   *************  **   ~~~   **   during Warmup 0 times;
   *************  **   ~~~   **   during Sizing 0 times.
   *************
   *************
   ************* ===== Final Error Summary =====
   ************* The following error categories occurred.  Consider correcting or noting.
   ************* Nominally Unused Constructions
   ************* ..The nominally unused constructions warning is provided to alert you to potential conditions that can cause
   ************* ..extra time during simulation. Each construction is calculated by the algorithm indicated in the HeatBalanceAlgorithm
   ************* ..object. You may remove the constructions indicated (when you use the DisplayExtraWarnings option).
   *************
   ************* EnergyPlus Warmup Error Summary. During Warmup: 1 Warning; 0 Severe Errors.
   ************* EnergyPlus Sizing Error Summary. During Sizing: 4 Warning; 0 Severe Errors.
   ************* EnergyPlus Completed Successfully-- 110711 Warning; 0 Severe Errors; Elapsed Time=00hr 01min 40.46sec
