Program Version,EnergyPlus, Version 22.2.0-c249759bad, YMD=2023.09.01 19:52,
   ************* Beginning Zone Sizing Calculations
   ** Warning ** ProcessScheduleInput: Schedule:Constant="ALWAYS ON DISCRETE", Schedule Type Limits Name="ONOFF" not found -- will not be validated
   ** Warning ** Foundation:Kiva="KIVA FOUNDATION", no Interior Horizontal Insulation Material Name defined
   **   ~~~   ** Interior Horizontal Insulation Depth will not be used.
   ** Warning ** CheckUsedConstructions: There are 15 nominally unused constructions in input.
   **   ~~~   ** Each Unused construction is shown.
   ************* Construction=INTERIOR FLOOR
   ************* Construction=INTERIOR WINDOW
   ************* Construction=EXTERIOR DOOR
   ************* Construction=INTERIOR DOOR
   ************* Construction=GABLE CONSTRUCTION
   ************* Construction=CRAWL_FLOOR
   ************* Construction=INSULATED PIPE
   ************* Construction=PLAIN PIPE
   ************* Construction=TDD PIPE
   ************* Construction=TDD DOME
   ************* Construction=TDD DIFFUSER
   ************* Construction=CRAWL WALL
   ************* Construction=CEILING-FLOOR-LAYER
   ************* Construction=SLAB CONSTRUCTION W FULL R10 INSULATION
   ************* Construction=SLAB CONSTRUCTION W FULL R5 INSULATION
   ** Warning ** GetDXCoils: Coil:Heating:DX:SingleSpeed="DX_HEATING_COIL" curve values
   **   ~~~   ** ... Defrost Energy Input Ratio Function of Temperature Curve Name = DEFROSTEIR output is not equal to 1.0 (+ or - 10%) at rated conditions.
   **   ~~~   ** ... Curve output at rated conditions = 0.152
   ************* Beginning System Sizing Calculations
   ************* Beginning Plant Sizing Calculations
   ** Warning ** Coil:WaterHeating:AirToWaterHeatPump:Wrapped "HEAT PUMP WATER HEATER EVAPORATOR": Rated air volume flow rate per watt of rated total water heating capacity is out of range
   **   ~~~   ** Min Rated Vol Flow Per Watt=[4.027E-005], Rated Vol Flow Per Watt=[1.510E-004], Max Rated Vol Flow Per Watt=[8.056E-005]. See Input-Output Reference Manual for valid range.
   ************* SizeFan: : Potential issue with equipment sizing for Fan:OnOff HEAT PUMP WATER HEATER FAN
   **   ~~~   ** User-Specified Maximum Flow Rate [m3/s] = 0.22653
   **   ~~~   ** differs from Design Size Maximum Flow Rate [m3/s] = 7.55250E-002
   **   ~~~   ** This may, or may not, indicate mismatched component sizes.
   **   ~~~   ** Verify that the value entered is intended and is consistent with other components.
   ** Warning ** Water heater = WATER HEATER TANK:  Recovery Efficiency and Energy Factor could not be calculated during the test for standard ratings
   **   ~~~   ** Setpoint was never recovered and/or heater never turned on
   ** Warning ** Check input. Pump nominal power or motor efficiency is set to 0, for pump=MAINS PRESSURE
   ** Warning ** Output:Meter: invalid Key Name="ELECTRIC_RANGE:INTERIOREQUIPMENT:ELECTRICITY" - not found.
   ** Warning ** Output:Meter: invalid Key Name="ELECTRIC_DRYER:INTERIOREQUIPMENT:ELECTRICITY" - not found.
   ** Warning ** Output:Meter: invalid Key Name="HEATRECOVERY:ELECTRICITY" - not found.
   ** Warning ** Output:Meter: invalid Key Name="HEATING:NATURALGAS" - not found.
   ** Warning ** Output:Meter: invalid Key Name="WATERSYSTEMS:NATURALGAS" - not found.
   ** Warning ** Output:Meter: invalid Key Name="PROPANE:FACILITY" - not found.
   ** Warning ** Output:Meter: invalid Key Name="HEATING:PROPANE" - not found.
   ************* Testing Individual Branch Integrity
   ************* All Branches passed integrity testing
   ************* Testing Individual Supply Air Path Integrity
   ************* All Supply Air Paths passed integrity testing
   ************* Testing Individual Return Air Path Integrity
   ************* All Return Air Paths passed integrity testing
   ************* No node connection errors were found.
   ************* Beginning Simulation
   ** Warning ** AirflowNetwork::Solver::validate_distribution: Heat pump water heater is simulated along with an AirflowNetwork but is not included in the AirflowNetwork.
   ** Warning ** CalcEquipmentFlowRates: "TOTAL HOT WATER LOAD" - Target water temperature is greater than the hot water temperature by (6.17 C)
   **   ~~~   **  Environment=EXTREME_WINTER, at Simulation time=01/27 06:00 - 06:15
   **   ~~~   ** ...target water temperature     = 53.33 C
   **   ~~~   ** ...hot water temperature        = 47.16 C
   **   ~~~   ** ...Target water temperature should be less than or equal to the hot water temperature. Verify temperature setpoints and schedules.
   ** Warning ** SimHVAC: Maximum iterations (20) exceeded for all HVAC loops, at ANNUAL, 03/15 09:45 - 09:49
   **   ~~~   ** The solution for one or more of the Air Loop HVAC systems did not appear to converge
   **   ~~~   ** Air System Named = CENTRAL SYSTEM did not converge for mass flow rate
   **   ~~~   ** Check values should be zero. Most Recent values listed first.
   **   ~~~   ** Demand-to-Supply interface mass flow rate check value iteration history trace: 5.492991E-002,5.492991E-002,5.492991E-002,5.492991E-002,5.492991E-002,5.492991E-002,5.492991E-002,5.492991E-002,5.492991E-002,5.492991E-002,
   **   ~~~   ** Supply-to-demand interface deck 1 mass flow rate check value iteration history trace: 5.492991E-002,5.492991E-002,5.492991E-002,5.492991E-002,5.492991E-002,5.492991E-002,5.492991E-002,5.492991E-002,5.492991E-002,5.492991E-002,
   **   ~~~   ** Air System Named = CENTRAL SYSTEM did not converge for energy
   **   ~~~   ** Check values should be zero. Most Recent values listed first.
   **   ~~~   ** Demand-to-Supply interface energy check value iteration history trace: 1088.526754,1088.526754,1088.526754,1088.526754,1088.526754,1088.526754,1088.526754,1088.526754,1088.526754,1088.526754,
   **   ~~~   ** Supply-to-demand interface deck 1 energy check value iteration history trace: 2053.633549,2053.633549,2053.633549,2053.633549,2053.633549,2053.633549,2053.633549,2053.633549,2053.633549,2053.633549,
   **   ~~~   ** Node named ZONE INLET NODE shows oscillating temperatures across iterations with a repeated value of 37.206211
   **   ~~~   ** Node named ZONE INLET NODE temperature [C] iteration history trace (most recent first): 37.206211,37.206211,37.206210,37.206210,37.206210,37.206210,37.206209,37.206209,37.206209,37.206209,
   ** Warning ** SimHVAC: Maximum iterations (20) exceeded for all HVAC loops, at ANNUAL, 03/20 23:50 - 23:55
   **   ~~~   ** The solution for one or more of the Air Loop HVAC systems did not appear to converge
   **   ~~~   ** Air System Named = CENTRAL SYSTEM did not converge for mass flow rate
   **   ~~~   ** Check values should be zero. Most Recent values listed first.
   **   ~~~   ** Demand-to-Supply interface mass flow rate check value iteration history trace: 6.551185E-002,6.551185E-002,6.551185E-002,6.551185E-002,6.551185E-002,6.551185E-002,6.551185E-002,6.551185E-002,6.551185E-002,6.551185E-002,
   **   ~~~   ** Supply-to-demand interface deck 1 mass flow rate check value iteration history trace: 6.551185E-002,6.551185E-002,6.551185E-002,6.551185E-002,6.551185E-002,6.551185E-002,6.551185E-002,6.551185E-002,6.551185E-002,6.551185E-002,
   **   ~~~   ** Air System Named = CENTRAL SYSTEM did not converge for energy
   **   ~~~   ** Check values should be zero. Most Recent values listed first.
   **   ~~~   ** Demand-to-Supply interface energy check value iteration history trace: 1220.482414,1220.482414,1220.482414,1220.482414,1220.482414,1220.482414,1220.482413,1220.482413,1220.482413,1220.482413,
   **   ~~~   ** Supply-to-demand interface deck 1 energy check value iteration history trace: 2018.947069,2018.947069,2018.947069,2018.947069,2018.947069,2018.947069,2018.947069,2018.947069,2018.947069,2018.947068,
   ** Warning ** SimHVAC: Maximum iterations (20) exceeded for all HVAC loops, at ANNUAL, 03/29 23:00 - 23:15
   **   ~~~   ** The solution for one or more of the Air Loop HVAC systems did not appear to converge
   **   ~~~   ** Air System Named = CENTRAL SYSTEM did not converge for mass flow rate
   **   ~~~   ** Check values should be zero. Most Recent values listed first.
   **   ~~~   ** Demand-to-Supply interface mass flow rate check value iteration history trace: 6.210016E-002,6.210016E-002,6.210016E-002,6.210016E-002,6.210016E-002,6.210016E-002,6.210016E-002,6.210016E-002,6.210016E-002,6.210016E-002,
   **   ~~~   ** Supply-to-demand interface deck 1 mass flow rate check value iteration history trace: 6.210016E-002,6.210016E-002,6.210016E-002,6.210016E-002,6.210016E-002,6.210016E-002,6.210016E-002,6.210016E-002,6.210016E-002,6.210016E-002,
   **   ~~~   ** Air System Named = CENTRAL SYSTEM did not converge for energy
   **   ~~~   ** Check values should be zero. Most Recent values listed first.
   **   ~~~   ** Demand-to-Supply interface energy check value iteration history trace: 1160.708610,1160.708610,1160.708610,1160.708610,1160.708610,1160.708610,1160.708610,1160.708609,1160.708609,1160.708609,
   **   ~~~   ** Supply-to-demand interface deck 1 energy check value iteration history trace: 1949.777516,1949.777516,1949.777516,1949.777516,1949.777516,1949.777516,1949.777516,1949.777516,1949.777515,1949.777515,
   ** Warning ** SimHVAC: Maximum iterations (20) exceeded for all HVAC loops, at ANNUAL, 04/19 07:15 - 07:22
   **   ~~~   ** The solution for one or more of the Air Loop HVAC systems did not appear to converge
   **   ~~~   ** Air System Named = CENTRAL SYSTEM did not converge for mass flow rate
   **   ~~~   ** Check values should be zero. Most Recent values listed first.
   **   ~~~   ** Demand-to-Supply interface mass flow rate check value iteration history trace: 5.540000E-002,5.540000E-002,5.540000E-002,5.540000E-002,5.540000E-002,5.540000E-002,5.540000E-002,5.540000E-002,5.540000E-002,5.540000E-002,
   **   ~~~   ** Supply-to-demand interface deck 1 mass flow rate check value iteration history trace: 5.540000E-002,5.540000E-002,5.540000E-002,5.540000E-002,5.540000E-002,5.540000E-002,5.540000E-002,5.540000E-002,5.540000E-002,5.540000E-002,
   **   ~~~   ** Air System Named = CENTRAL SYSTEM did not converge for energy
   **   ~~~   ** Check values should be zero. Most Recent values listed first.
   **   ~~~   ** Demand-to-Supply interface energy check value iteration history trace: 1097.789357,1097.789357,1097.789356,1097.789356,1097.789356,1097.789356,1097.789356,1097.789356,1097.789356,1097.789356,
   **   ~~~   ** Supply-to-demand interface deck 1 energy check value iteration history trace: 2162.290687,2162.290687,2162.290687,2162.290686,2162.290686,2162.290686,2162.290685,2162.290685,2162.290685,2162.290685,
   **   ~~~   ** Node named ZONE INLET NODE shows oscillating temperatures across iterations with a repeated value of 38.842373
   **   ~~~   ** Node named ZONE INLET NODE temperature [C] iteration history trace (most recent first): 38.842373,38.842373,38.842373,38.842373,38.842372,38.842372,38.842372,38.842371,38.842371,38.842371,
   ** Warning ** SimHVAC: Maximum iterations (20) exceeded for all HVAC loops, at ANNUAL, 06/15 23:53 - 24:00
   **   ~~~   ** The solution for one or more of the Air Loop HVAC systems did not appear to converge
   **   ~~~   ** Air System Named = CENTRAL SYSTEM did not converge for mass flow rate
   **   ~~~   ** Check values should be zero. Most Recent values listed first.
   **   ~~~   ** Demand-to-Supply interface mass flow rate check value iteration history trace: 4.539940E-002,4.539940E-002,4.539940E-002,4.539940E-002,4.539940E-002,4.539940E-002,4.539940E-002,4.539940E-002,4.539940E-002,4.539940E-002,
   **   ~~~   ** Supply-to-demand interface deck 1 mass flow rate check value iteration history trace: 4.539940E-002,4.539940E-002,4.539940E-002,4.539940E-002,4.539940E-002,4.539940E-002,4.539940E-002,4.539940E-002,4.539940E-002,4.539940E-002,
   **   ~~~   ** Air System Named = CENTRAL SYSTEM did not converge for energy
   **   ~~~   ** Check values should be zero. Most Recent values listed first.
   **   ~~~   ** Demand-to-Supply interface energy check value iteration history trace: 1127.097937,1127.097937,1127.097937,1127.097938,1127.097938,1127.097938,1127.097938,1127.097938,1127.097939,1127.097939,
   **   ~~~   ** Supply-to-demand interface deck 1 energy check value iteration history trace: 425.149516,425.149516,425.149517,425.149517,425.149517,425.149517,425.149517,425.149517,425.149517,425.149517,
   ** Warning ** SimHVAC: Maximum iterations (20) exceeded for all HVAC loops, at ANNUAL, 09/13 07:38 - 07:41
   **   ~~~   ** The solution for one or more of the Air Loop HVAC systems did not appear to converge
   **   ~~~   ** Air System Named = CENTRAL SYSTEM did not converge for mass flow rate
   **   ~~~   ** Check values should be zero. Most Recent values listed first.
   **   ~~~   ** Demand-to-Supply interface mass flow rate check value iteration history trace: 5.960542E-002,5.960542E-002,5.960542E-002,5.960542E-002,5.960542E-002,5.960542E-002,5.960542E-002,5.960542E-002,5.960542E-002,5.960542E-002,
   **   ~~~   ** Supply-to-demand interface deck 1 mass flow rate check value iteration history trace: 5.960542E-002,5.960542E-002,5.960542E-002,5.960542E-002,5.960542E-002,5.960542E-002,5.960542E-002,5.960542E-002,5.960542E-002,5.960542E-002,
   **   ~~~   ** Air System Named = CENTRAL SYSTEM did not converge for energy
   **   ~~~   ** Check values should be zero. Most Recent values listed first.
   **   ~~~   ** Demand-to-Supply interface energy check value iteration history trace: 1181.187956,1181.187956,1181.187956,1181.187956,1181.187956,1181.187956,1181.187955,1181.187955,1181.187955,1181.187955,
   **   ~~~   ** Supply-to-demand interface deck 1 energy check value iteration history trace: 2177.501517,2177.501517,2177.501517,2177.501517,2177.501517,2177.501517,2177.501517,2177.501517,2177.501517,2177.501517,
   ** Warning ** SimHVAC: Maximum iterations (20) exceeded for all HVAC loops, at ANNUAL, 10/07 10:30 - 10:45
   **   ~~~   ** The solution for one or more of the Air Loop HVAC systems did not appear to converge
   **   ~~~   ** Air System Named = CENTRAL SYSTEM did not converge for mass flow rate
   **   ~~~   ** Check values should be zero. Most Recent values listed first.
   **   ~~~   ** Demand-to-Supply interface mass flow rate check value iteration history trace: 7.971235E-002,7.971235E-002,7.971235E-002,7.971235E-002,7.971235E-002,7.971235E-002,7.971235E-002,7.971235E-002,7.971235E-002,7.971235E-002,
   **   ~~~   ** Supply-to-demand interface deck 1 mass flow rate check value iteration history trace: 7.971235E-002,7.971235E-002,7.971235E-002,7.971235E-002,7.971235E-002,7.971235E-002,7.971235E-002,7.971235E-002,7.971235E-002,7.971235E-002,
   **   ~~~   ** Air System Named = CENTRAL SYSTEM did not converge for energy
   **   ~~~   ** Check values should be zero. Most Recent values listed first.
   **   ~~~   ** Demand-to-Supply interface energy check value iteration history trace: 1905.378766,1905.378766,1905.378766,1905.378766,1905.378766,1905.378767,1905.378767,1905.378767,1905.378767,1905.378767,
   **   ~~~   ** Supply-to-demand interface deck 1 energy check value iteration history trace: 932.032902,932.032902,932.032902,932.032902,932.032902,932.032902,932.032902,932.032902,932.032902,932.032902,
   ** Warning ** SimHVAC: Maximum iterations (20) exceeded for all HVAC loops, at ANNUAL, 10/20 07:55 - 08:00
   **   ~~~   ** The solution for one or more of the Air Loop HVAC systems did not appear to converge
   **   ~~~   ** Air System Named = CENTRAL SYSTEM did not converge for mass flow rate
   **   ~~~   ** Check values should be zero. Most Recent values listed first.
   **   ~~~   ** Demand-to-Supply interface mass flow rate check value iteration history trace: 5.408940E-002,5.408940E-002,5.408940E-002,5.408940E-002,5.408940E-002,5.408940E-002,5.408940E-002,5.408940E-002,5.408940E-002,5.408940E-002,
   **   ~~~   ** Supply-to-demand interface deck 1 mass flow rate check value iteration history trace: 5.408940E-002,5.408940E-002,5.408940E-002,5.408940E-002,5.408940E-002,5.408940E-002,5.408940E-002,5.408940E-002,5.408940E-002,5.408940E-002,
   **   ~~~   ** Air System Named = CENTRAL SYSTEM did not converge for energy
   **   ~~~   ** Check values should be zero. Most Recent values listed first.
   **   ~~~   ** Demand-to-Supply interface energy check value iteration history trace: 1069.091349,1069.091349,1069.091349,1069.091349,1069.091349,1069.091349,1069.091349,1069.091349,1069.091349,1069.091349,
   **   ~~~   ** Supply-to-demand interface deck 1 energy check value iteration history trace: 2054.258845,2054.258845,2054.258845,2054.258844,2054.258844,2054.258844,2054.258844,2054.258844,2054.258844,2054.258844,
   ** Warning ** SimHVAC: Maximum iterations (20) exceeded for all HVAC loops, at ANNUAL, 12/13 16:15 - 16:30
   **   ~~~   ** The solution for one or more of the Air Loop HVAC systems did not appear to converge
   **   ~~~   ** Air System Named = CENTRAL SYSTEM did not converge for mass flow rate
   **   ~~~   ** Check values should be zero. Most Recent values listed first.
   **   ~~~   ** Demand-to-Supply interface mass flow rate check value iteration history trace: 6.659885E-002,6.659885E-002,6.659885E-002,6.659885E-002,6.659885E-002,6.659885E-002,6.659885E-002,6.659885E-002,6.659885E-002,6.659885E-002,
   **   ~~~   ** Supply-to-demand interface deck 1 mass flow rate check value iteration history trace: 6.659885E-002,6.659885E-002,6.659885E-002,6.659885E-002,6.659885E-002,6.659885E-002,6.659885E-002,6.659885E-002,6.659885E-002,6.659885E-002,
   **   ~~~   ** Air System Named = CENTRAL SYSTEM did not converge for energy
   **   ~~~   ** Check values should be zero. Most Recent values listed first.
   **   ~~~   ** Demand-to-Supply interface energy check value iteration history trace: 1311.503345,1311.503345,1311.503345,1311.503345,1311.503344,1311.503344,1311.503344,1311.503344,1311.503344,1311.503344,
   **   ~~~   ** Supply-to-demand interface deck 1 energy check value iteration history trace: 2392.112491,2392.112491,2392.112491,2392.112491,2392.112491,2392.112491,2392.112490,2392.112490,2392.112490,2392.112490,
   ************* Simulation Error Summary *************
   ** Warning ** The following Report Variables were requested but not generated -- check.rdd file
   **   ~~~   ** Either the IDF did not contain these elements, the variable name is misspelled,
   **   ~~~   ** or the requested variable is an advanced output which requires Output : Diagnostics, DisplayAdvancedReportVariables;
   ************* Key=*, VarName=BASEBOARD TOTAL HEATING ENERGY, Frequency=
   ************* Key=*, VarName=WATER HEATER NATURALGAS ENERGY, Frequency=
   ************* Key=*, VarName=COOLING COIL TOTAL HEATING ENERGY, Frequency=
   ************* There are 34 unused schedules in input.
   ************* There are 388 unused week schedules in input.
   ************* There are 396 unused day schedules in input.
   ************* Use Output:Diagnostics,DisplayUnusedSchedules; to see them.
   *************
   ************* ===== Recurring Error Summary =====
   ************* The following recurring error messages occurred.
   *************
   *************  ** Warning ** "TOTAL HOT WATER LOAD" - Target water temperature should be less than or equal to the hot water temperature error continues...
   *************  **   ~~~   **   This error occurred 106515 total times;
   *************  **   ~~~   **   during Warmup 0 times;
   *************  **   ~~~   **   during Sizing 0 times.
   *************  **   ~~~   **   Max=14.987595  Min=3.967464E-004
   *************
   *************
   ************* ===== Final Error Summary =====
   ************* The following error categories occurred.  Consider correcting or noting.
   ************* Nominally Unused Constructions
   ************* ..The nominally unused constructions warning is provided to alert you to potential conditions that can cause
   ************* ..extra time during simulation. Each construction is calculated by the algorithm indicated in the HeatBalanceAlgorithm
   ************* ..object. You may remove the constructions indicated (when you use the DisplayExtraWarnings option).
   *************
   ************* EnergyPlus Warmup Error Summary. During Warmup: 1 Warning; 0 Severe Errors.
   ************* EnergyPlus Sizing Error Summary. During Sizing: 4 Warning; 0 Severe Errors.
   ************* EnergyPlus Completed Successfully-- 106541 Warning; 0 Severe Errors; Elapsed Time=00hr 01min 30.29sec
