Program Version,EnergyPlus, Version 22.2.0-c249759bad, YMD=2023.08.31 13:04,
   ************* Beginning Zone Sizing Calculations
   ** Warning ** ProcessScheduleInput: Schedule:Constant="ALWAYS ON DISCRETE", Schedule Type Limits Name="ONOFF" not found -- will not be validated
   ** Warning ** Foundation:Kiva="KIVA FOUNDATION", no Interior Horizontal Insulation Material Name defined
   **   ~~~   ** Interior Horizontal Insulation Depth will not be used.
   ** Warning ** CheckUsedConstructions: There are 15 nominally unused constructions in input.
   **   ~~~   ** Each Unused construction is shown.
   ************* Construction=INTERIOR FLOOR
   ************* Construction=INTERIOR WINDOW
   ************* Construction=EXTERIOR DOOR
   ************* Construction=INTERIOR DOOR
   ************* Construction=GABLE CONSTRUCTION
   ************* Construction=CRAWL_FLOOR
   ************* Construction=INSULATED PIPE
   ************* Construction=PLAIN PIPE
   ************* Construction=TDD PIPE
   ************* Construction=TDD DOME
   ************* Construction=TDD DIFFUSER
   ************* Construction=CRAWL WALL
   ************* Construction=CEILING-FLOOR-LAYER
   ************* Construction=SLAB CONSTRUCTION W FULL R10 INSULATION
   ************* Construction=SLAB CONSTRUCTION W FULL R5 INSULATION
   ** Warning ** GetDXCoils: Coil:Heating:DX:SingleSpeed="DX_HEATING_COIL" curve values
   **   ~~~   ** ... Defrost Energy Input Ratio Function of Temperature Curve Name = DEFROSTEIR output is not equal to 1.0 (+ or - 10%) at rated conditions.
   **   ~~~   ** ... Curve output at rated conditions = 0.152
   ************* Beginning System Sizing Calculations
   ************* Beginning Plant Sizing Calculations
   ** Warning ** Coil:WaterHeating:AirToWaterHeatPump:Wrapped "HEAT PUMP WATER HEATER EVAPORATOR": Rated air volume flow rate per watt of rated total water heating capacity is out of range
   **   ~~~   ** Min Rated Vol Flow Per Watt=[4.027E-005], Rated Vol Flow Per Watt=[1.386E-004], Max Rated Vol Flow Per Watt=[8.056E-005]. See Input-Output Reference Manual for valid range.
   ** Warning ** Water heater = WATER HEATER TANK:  Recovery Efficiency and Energy Factor could not be calculated during the test for standard ratings
   **   ~~~   ** Setpoint was never recovered and/or heater never turned on
   ** Warning ** Check input. Pump nominal power or motor efficiency is set to 0, for pump=MAINS PRESSURE
   ** Warning ** AirflowNetwork::Solver::validate_distribution: Heat pump water heater is simulated along with an AirflowNetwork but is not included in the AirflowNetwork.
   ** Warning ** Output:Meter: invalid Key Name="ELECTRIC_RANGE:INTERIOREQUIPMENT:ELECTRICITY" - not found.
   ** Warning ** Output:Meter: invalid Key Name="ELECTRIC_DRYER:INTERIOREQUIPMENT:ELECTRICITY" - not found.
   ** Warning ** Output:Meter: invalid Key Name="HEATRECOVERY:ELECTRICITY" - not found.
   ** Warning ** Output:Meter: invalid Key Name="HEATING:NATURALGAS" - not found.
   ** Warning ** Output:Meter: invalid Key Name="WATERSYSTEMS:NATURALGAS" - not found.
   ** Warning ** Output:Meter: invalid Key Name="PROPANE:FACILITY" - not found.
   ** Warning ** Output:Meter: invalid Key Name="HEATING:PROPANE" - not found.
   ************* Testing Individual Branch Integrity
   ************* All Branches passed integrity testing
   ************* Testing Individual Supply Air Path Integrity
   ************* All Supply Air Paths passed integrity testing
   ************* Testing Individual Return Air Path Integrity
   ************* All Return Air Paths passed integrity testing
   ************* No node connection errors were found.
   ************* Beginning Simulation
   ** Warning ** CalcEquipmentFlowRates: "TOTAL HOT WATER LOAD" - Target water temperature is greater than the hot water temperature by (2.24 C)
   **   ~~~   **  Environment=EXTREME_WINTER, at Simulation time=01/20 03:45 - 04:00
   **   ~~~   ** ...target water temperature     = 53.33 C
   **   ~~~   ** ...hot water temperature        = 51.09 C
   **   ~~~   ** ...Target water temperature should be less than or equal to the hot water temperature. Verify temperature setpoints and schedules.
   ** Warning ** SimHVAC: Maximum iterations (20) exceeded for all HVAC loops, at ANNUAL, 03/22 08:35 - 08:37
   **   ~~~   ** The solution for one or more of the Air Loop HVAC systems did not appear to converge
   **   ~~~   ** Air System Named = CENTRAL SYSTEM did not converge for mass flow rate
   **   ~~~   ** Check values should be zero. Most Recent values listed first.
   **   ~~~   ** Demand-to-Supply interface mass flow rate check value iteration history trace: 7.208936E-002,7.208936E-002,7.208936E-002,7.208936E-002,7.208936E-002,7.208936E-002,7.208936E-002,7.208936E-002,7.208936E-002,7.208936E-002,
   **   ~~~   ** Supply-to-demand interface deck 1 mass flow rate check value iteration history trace: 7.208936E-002,7.208936E-002,7.208936E-002,7.208936E-002,7.208936E-002,7.208936E-002,7.208936E-002,7.208936E-002,7.208936E-002,7.208936E-002,
   **   ~~~   ** Air System Named = CENTRAL SYSTEM did not converge for energy
   **   ~~~   ** Check values should be zero. Most Recent values listed first.
   **   ~~~   ** Demand-to-Supply interface energy check value iteration history trace: 1428.022491,1428.022491,1428.022490,1428.022490,1428.022489,1428.022488,1428.022488,1428.022487,1428.022487,1428.022486,
   **   ~~~   ** Supply-to-demand interface deck 1 energy check value iteration history trace: 2657.791067,2657.791066,2657.791065,2657.791064,2657.791063,2657.791061,2657.791060,2657.791059,2657.791058,2657.791057,
   ** Warning ** SimHVAC: Maximum iterations (20) exceeded for all HVAC loops, at ANNUAL, 04/16 13:23 - 13:30
   **   ~~~   ** The solution for one or more of the Air Loop HVAC systems did not appear to converge
   **   ~~~   ** Air System Named = CENTRAL SYSTEM did not converge for mass flow rate
   **   ~~~   ** Check values should be zero. Most Recent values listed first.
   **   ~~~   ** Demand-to-Supply interface mass flow rate check value iteration history trace: 6.300130E-002,6.300130E-002,6.300130E-002,6.300130E-002,6.300130E-002,6.300130E-002,6.300130E-002,6.300130E-002,6.300130E-002,6.300130E-002,
   **   ~~~   ** Supply-to-demand interface deck 1 mass flow rate check value iteration history trace: 6.300130E-002,6.300130E-002,6.300130E-002,6.300130E-002,6.300130E-002,6.300130E-002,6.300130E-002,6.300130E-002,6.300130E-002,6.300130E-002,
   **   ~~~   ** Air System Named = CENTRAL SYSTEM did not converge for energy
   **   ~~~   ** Check values should be zero. Most Recent values listed first.
   **   ~~~   ** Demand-to-Supply interface energy check value iteration history trace: 1240.586966,1240.586964,1240.586962,1240.586959,1240.586957,1240.586955,1240.586952,1240.586950,1240.586948,1240.586945,
   **   ~~~   ** Supply-to-demand interface deck 1 energy check value iteration history trace: 2293.149068,2293.149063,2293.149059,2293.149055,2293.149050,2293.149046,2293.149042,2293.149037,2293.149033,2293.149029,
   **   ~~~   ** Node named ZONE INLET NODE shows oscillating temperatures across iterations with a repeated value of 36.222982
   **   ~~~   ** Node named ZONE INLET NODE temperature [C] iteration history trace (most recent first): 36.222982,36.222981,36.222981,36.222981,36.222981,36.222980,36.222980,36.222980,36.222979,36.222979,
   ** Warning ** SimHVAC: Maximum iterations (20) exceeded for all HVAC loops, at ANNUAL, 04/25 07:45 - 08:00
   **   ~~~   ** The solution for one or more of the Air Loop HVAC systems did not appear to converge
   **   ~~~   ** Air System Named = CENTRAL SYSTEM did not converge for mass flow rate
   **   ~~~   ** Check values should be zero. Most Recent values listed first.
   **   ~~~   ** Demand-to-Supply interface mass flow rate check value iteration history trace: 6.767667E-002,6.767667E-002,6.767667E-002,6.767667E-002,6.767667E-002,6.767667E-002,6.767667E-002,6.767667E-002,6.767667E-002,6.767667E-002,
   **   ~~~   ** Supply-to-demand interface deck 1 mass flow rate check value iteration history trace: 6.767667E-002,6.767667E-002,6.767667E-002,6.767667E-002,6.767667E-002,6.767667E-002,6.767667E-002,6.767667E-002,6.767667E-002,6.767667E-002,
   **   ~~~   ** Air System Named = CENTRAL SYSTEM did not converge for energy
   **   ~~~   ** Check values should be zero. Most Recent values listed first.
   **   ~~~   ** Demand-to-Supply interface energy check value iteration history trace: 1341.038098,1341.038096,1341.038095,1341.038093,1341.038092,1341.038090,1341.038088,1341.038087,1341.038085,1341.038084,
   **   ~~~   ** Supply-to-demand interface deck 1 energy check value iteration history trace: 2464.727361,2464.727358,2464.727355,2464.727352,2464.727349,2464.727347,2464.727344,2464.727341,2464.727338,2464.727335,
   ** Warning ** SimHVAC: Maximum iterations (20) exceeded for all HVAC loops, at ANNUAL, 07/01 08:04 - 08:08
   **   ~~~   ** The solution for one or more of the Air Loop HVAC systems did not appear to converge
   **   ~~~   ** Air System Named = CENTRAL SYSTEM did not converge for mass flow rate
   **   ~~~   ** Check values should be zero. Most Recent values listed first.
   **   ~~~   ** Demand-to-Supply interface mass flow rate check value iteration history trace: 0.100369,0.100369,0.100369,0.100369,0.100369,0.100369,0.100369,0.100369,0.100369,0.100369,
   **   ~~~   ** Supply-to-demand interface deck 1 mass flow rate check value iteration history trace: 0.100369,0.100369,0.100369,0.100369,0.100369,0.100369,0.100369,0.100369,0.100369,0.100369,
   **   ~~~   ** Air System Named = CENTRAL SYSTEM did not converge for energy
   **   ~~~   ** Check values should be zero. Most Recent values listed first.
   **   ~~~   ** Demand-to-Supply interface energy check value iteration history trace: 2372.791054,2372.791056,2372.791058,2372.791061,2372.791063,2372.791066,2372.791068,2372.791071,2372.791073,2372.791076,
   **   ~~~   ** Supply-to-demand interface deck 1 energy check value iteration history trace: 1069.389141,1069.389142,1069.389143,1069.389144,1069.389145,1069.389146,1069.389147,1069.389148,1069.389150,1069.389151,
   ** Warning ** SimHVAC: Maximum iterations (20) exceeded for all HVAC loops, at ANNUAL, 07/01 08:41 - 08:45
   **   ~~~   ** The solution for one or more of the Air Loop HVAC systems did not appear to converge
   **   ~~~   ** Air System Named = CENTRAL SYSTEM did not converge for mass flow rate
   **   ~~~   ** Check values should be zero. Most Recent values listed first.
   **   ~~~   ** Demand-to-Supply interface mass flow rate check value iteration history trace: 0.210084,0.210084,0.210084,0.210084,0.210084,0.210084,0.210084,0.210084,0.210084,0.210084,
   **   ~~~   ** Supply-to-demand interface deck 1 mass flow rate check value iteration history trace: 0.210084,0.210084,0.210084,0.210084,0.210084,0.210084,0.210084,0.210084,0.210084,0.210084,
   **   ~~~   ** Air System Named = CENTRAL SYSTEM did not converge for energy
   **   ~~~   ** Check values should be zero. Most Recent values listed first.
   **   ~~~   ** Demand-to-Supply interface energy check value iteration history trace: 4970.618710,4970.618715,4970.618721,4970.618726,4970.618731,4970.618736,4970.618742,4970.618747,4970.618752,4970.618757,
   **   ~~~   ** Supply-to-demand interface deck 1 energy check value iteration history trace: 2229.707103,2229.707105,2229.707108,2229.707110,2229.707112,2229.707115,2229.707117,2229.707119,2229.707122,2229.707124,
   ** Warning ** SimHVAC: Maximum iterations (20) exceeded for all HVAC loops, at ANNUAL, 10/11 07:55 - 07:58
   **   ~~~   ** The solution for one or more of the Air Loop HVAC systems did not appear to converge
   **   ~~~   ** Air System Named = CENTRAL SYSTEM did not converge for mass flow rate
   **   ~~~   ** Check values should be zero. Most Recent values listed first.
   **   ~~~   ** Demand-to-Supply interface mass flow rate check value iteration history trace: 7.449934E-002,7.449934E-002,7.449934E-002,7.449934E-002,7.449934E-002,7.449934E-002,7.449934E-002,7.449934E-002,7.449934E-002,7.449934E-002,
   **   ~~~   ** Supply-to-demand interface deck 1 mass flow rate check value iteration history trace: 7.449934E-002,7.449934E-002,7.449934E-002,7.449934E-002,7.449934E-002,7.449934E-002,7.449934E-002,7.449934E-002,7.449934E-002,7.449934E-002,
   **   ~~~   ** Air System Named = CENTRAL SYSTEM did not converge for energy
   **   ~~~   ** Check values should be zero. Most Recent values listed first.
   **   ~~~   ** Demand-to-Supply interface energy check value iteration history trace: 1476.550169,1476.550168,1476.550167,1476.550166,1476.550166,1476.550165,1476.550164,1476.550163,1476.550162,1476.550161,
   **   ~~~   ** Supply-to-demand interface deck 1 energy check value iteration history trace: 2697.067796,2697.067794,2697.067793,2697.067791,2697.067789,2697.067787,2697.067786,2697.067784,2697.067782,2697.067781,
   ** Warning ** SimHVAC: Maximum iterations (20) exceeded for all HVAC loops, at ANNUAL, 10/18 21:15 - 21:30
   **   ~~~   ** The solution for one or more of the Air Loop HVAC systems did not appear to converge
   **   ~~~   ** Air System Named = CENTRAL SYSTEM did not converge for mass flow rate
   **   ~~~   ** Check values should be zero. Most Recent values listed first.
   **   ~~~   ** Demand-to-Supply interface mass flow rate check value iteration history trace: 4.672557E-002,4.672557E-002,4.672557E-002,4.672557E-002,4.672557E-002,4.672557E-002,4.672557E-002,4.672557E-002,4.672557E-002,4.672557E-002,
   **   ~~~   ** Supply-to-demand interface deck 1 mass flow rate check value iteration history trace: 4.672557E-002,4.672557E-002,4.672557E-002,4.672557E-002,4.672557E-002,4.672557E-002,4.672557E-002,4.672557E-002,4.672557E-002,4.672557E-002,
   **   ~~~   ** Air System Named = CENTRAL SYSTEM did not converge for energy
   **   ~~~   ** Check values should be zero. Most Recent values listed first.
   **   ~~~   ** Demand-to-Supply interface energy check value iteration history trace: 925.395711,925.395711,925.395710,925.395709,925.395708,925.395707,925.395707,925.395706,925.395705,925.395704,
   **   ~~~   ** Supply-to-demand interface deck 1 energy check value iteration history trace: 1623.305449,1623.305447,1623.305446,1623.305445,1623.305443,1623.305442,1623.305441,1623.305439,1623.305438,1623.305437,
   ** Warning ** SimHVAC: Maximum iterations (20) exceeded for all HVAC loops, at ANNUAL, 11/02 08:45 - 08:50
   **   ~~~   ** The solution for one or more of the Air Loop HVAC systems did not appear to converge
   **   ~~~   ** Air System Named = CENTRAL SYSTEM did not converge for mass flow rate
   **   ~~~   ** Check values should be zero. Most Recent values listed first.
   **   ~~~   ** Demand-to-Supply interface mass flow rate check value iteration history trace: 6.268783E-002,6.268783E-002,6.268783E-002,6.268783E-002,6.268783E-002,6.268783E-002,6.268783E-002,6.268783E-002,6.268783E-002,6.268783E-002,
   **   ~~~   ** Supply-to-demand interface deck 1 mass flow rate check value iteration history trace: 6.268783E-002,6.268783E-002,6.268783E-002,6.268783E-002,6.268783E-002,6.268783E-002,6.268783E-002,6.268783E-002,6.268783E-002,6.268783E-002,
   **   ~~~   ** Air System Named = CENTRAL SYSTEM did not converge for energy
   **   ~~~   ** Check values should be zero. Most Recent values listed first.
   **   ~~~   ** Demand-to-Supply interface energy check value iteration history trace: 1242.223107,1242.223106,1242.223105,1242.223104,1242.223103,1242.223101,1242.223100,1242.223099,1242.223098,1242.223096,
   **   ~~~   ** Supply-to-demand interface deck 1 energy check value iteration history trace: 2219.474237,2219.474235,2219.474232,2219.474230,2219.474228,2219.474226,2219.474224,2219.474221,2219.474219,2219.474217,
   ** Warning ** SimHVAC: Maximum iterations (20) exceeded for all HVAC loops, at ANNUAL, 11/16 19:45 - 20:00
   **   ~~~   ** The solution for one or more of the Air Loop HVAC systems did not appear to converge
   **   ~~~   ** Air System Named = CENTRAL SYSTEM did not converge for mass flow rate
   **   ~~~   ** Check values should be zero. Most Recent values listed first.
   **   ~~~   ** Demand-to-Supply interface mass flow rate check value iteration history trace: 1.890277E-002,1.890277E-002,1.890277E-002,1.890277E-002,1.890277E-002,1.890277E-002,1.890277E-002,1.890277E-002,1.890277E-002,1.890277E-002,
   **   ~~~   ** Supply-to-demand interface deck 1 mass flow rate check value iteration history trace: 1.890277E-002,1.890277E-002,1.890277E-002,1.890277E-002,1.890277E-002,1.890277E-002,1.890277E-002,1.890277E-002,1.890277E-002,1.890277E-002,
   **   ~~~   ** Air System Named = CENTRAL SYSTEM did not converge for energy
   **   ~~~   ** Check values should be zero. Most Recent values listed first.
   **   ~~~   ** Demand-to-Supply interface energy check value iteration history trace: 374.374415,374.374415,374.374414,374.374414,374.374414,374.374413,374.374413,374.374413,374.374412,374.374412,
   **   ~~~   ** Supply-to-demand interface deck 1 energy check value iteration history trace: 657.232203,657.232203,657.232202,657.232201,657.232201,657.232200,657.232200,657.232199,657.232198,657.232198,
   ** Warning ** SimHVAC: Maximum iterations (20) exceeded for all HVAC loops, at ANNUAL, 11/19 14:00 - 14:15
   **   ~~~   ** The solution for one or more of the Air Loop HVAC systems did not appear to converge
   **   ~~~   ** Air System Named = CENTRAL SYSTEM did not converge for mass flow rate
   **   ~~~   ** Check values should be zero. Most Recent values listed first.
   **   ~~~   ** Demand-to-Supply interface mass flow rate check value iteration history trace: 5.223242E-002,5.223242E-002,5.223242E-002,5.223242E-002,5.223242E-002,5.223242E-002,5.223242E-002,5.223242E-002,5.223242E-002,5.223242E-002,
   **   ~~~   ** Supply-to-demand interface deck 1 mass flow rate check value iteration history trace: 5.223242E-002,5.223242E-002,5.223242E-002,5.223242E-002,5.223242E-002,5.223242E-002,5.223242E-002,5.223242E-002,5.223242E-002,5.223242E-002,
   **   ~~~   ** Air System Named = CENTRAL SYSTEM did not converge for energy
   **   ~~~   ** Check values should be zero. Most Recent values listed first.
   **   ~~~   ** Demand-to-Supply interface energy check value iteration history trace: 1035.023004,1035.023002,1035.023001,1035.023000,1035.022998,1035.022997,1035.022996,1035.022994,1035.022993,1035.022992,
   **   ~~~   ** Supply-to-demand interface deck 1 energy check value iteration history trace: 1899.595373,1899.595370,1899.595368,1899.595365,1899.595363,1899.595360,1899.595358,1899.595356,1899.595353,1899.595351,
   ************* Simulation Error Summary *************
   ** Warning ** The following Report Variables were requested but not generated -- check.rdd file
   **   ~~~   ** Either the IDF did not contain these elements, the variable name is misspelled,
   **   ~~~   ** or the requested variable is an advanced output which requires Output : Diagnostics, DisplayAdvancedReportVariables;
   ************* Key=*, VarName=BASEBOARD TOTAL HEATING ENERGY, Frequency=
   ************* Key=*, VarName=WATER HEATER NATURALGAS ENERGY, Frequency=
   ************* Key=*, VarName=COOLING COIL TOTAL HEATING ENERGY, Frequency=
   ************* There are 34 unused schedules in input.
   ************* There are 388 unused week schedules in input.
   ************* There are 396 unused day schedules in input.
   ************* Use Output:Diagnostics,DisplayUnusedSchedules; to see them.
   *************
   ************* ===== Recurring Error Summary =====
   ************* The following recurring error messages occurred.
   *************
   *************  ** Warning ** "TOTAL HOT WATER LOAD" - Target water temperature should be less than or equal to the hot water temperature error continues...
   *************  **   ~~~   **   This error occurred 47365 total times;
   *************  **   ~~~   **   during Warmup 0 times;
   *************  **   ~~~   **   during Sizing 0 times.
   *************  **   ~~~   **   Max=6.751742  Min=5.858701E-004
   *************
   *************
   ************* ===== Final Error Summary =====
   ************* The following error categories occurred.  Consider correcting or noting.
   ************* Nominally Unused Constructions
   ************* ..The nominally unused constructions warning is provided to alert you to potential conditions that can cause
   ************* ..extra time during simulation. Each construction is calculated by the algorithm indicated in the HeatBalanceAlgorithm
   ************* ..object. You may remove the constructions indicated (when you use the DisplayExtraWarnings option).
   *************
   ************* EnergyPlus Warmup Error Summary. During Warmup: 0 Warning; 0 Severe Errors.
   ************* EnergyPlus Sizing Error Summary. During Sizing: 4 Warning; 0 Severe Errors.
   ************* EnergyPlus Completed Successfully-- 47392 Warning; 0 Severe Errors; Elapsed Time=00hr 05min  7.99sec
