Program Version,EnergyPlus, Version 22.2.0-c249759bad, YMD=2023.09.01 19:41,
   ************* Beginning Zone Sizing Calculations
   ** Warning ** ProcessScheduleInput: Schedule:Constant="ALWAYS ON DISCRETE", Schedule Type Limits Name="ONOFF" not found -- will not be validated
   ** Warning ** Foundation:Kiva="KIVA FOUNDATION", no Interior Horizontal Insulation Material Name defined
   **   ~~~   ** Interior Horizontal Insulation Depth will not be used.
   ** Warning ** CheckUsedConstructions: There are 15 nominally unused constructions in input.
   **   ~~~   ** Each Unused construction is shown.
   ************* Construction=INTERIOR FLOOR
   ************* Construction=INTERIOR WINDOW
   ************* Construction=EXTERIOR DOOR
   ************* Construction=INTERIOR DOOR
   ************* Construction=GABLE CONSTRUCTION
   ************* Construction=CRAWL_FLOOR
   ************* Construction=INSULATED PIPE
   ************* Construction=PLAIN PIPE
   ************* Construction=TDD PIPE
   ************* Construction=TDD DOME
   ************* Construction=TDD DIFFUSER
   ************* Construction=CRAWL WALL
   ************* Construction=CEILING-FLOOR-LAYER
   ************* Construction=SLAB CONSTRUCTION W FULL R10 INSULATION
   ************* Construction=SLAB CONSTRUCTION W FULL R5 INSULATION
   ** Warning ** GetDXCoils: Coil:Heating:DX:SingleSpeed="DX_HEATING_COIL" curve values
   **   ~~~   ** ... Defrost Energy Input Ratio Function of Temperature Curve Name = DEFROSTEIR output is not equal to 1.0 (+ or - 10%) at rated conditions.
   **   ~~~   ** ... Curve output at rated conditions = 0.152
   ************* Beginning System Sizing Calculations
   ************* Beginning Plant Sizing Calculations
   ** Warning ** SizeDXCoil Coil:Cooling:DX:SingleSpeed DX_COOLING_COIL
   **   ~~~   ** ...Gross Rated Total Cooling Capacity [W] will be limited by the maximum rated volume flow per rated total capacity ratio.
   **   ~~~   ** ...DX coil volume flow rate ( m3/s ) = 0.396807
   **   ~~~   ** ...Requested capacity ( W ) = 6051.777
   **   ~~~   ** ...Requested flow/capacity ratio ( m3/s/W ) = 6.556E-005
   **   ~~~   ** ...Maximum flow/capacity ratio ( m3/s/W ) = 6.041E-005
   **   ~~~   ** ...Adjusted capacity ( W ) = 6568.576
   ** Warning ** Coil:WaterHeating:AirToWaterHeatPump:Wrapped "HEAT PUMP WATER HEATER EVAPORATOR": Rated air volume flow rate per watt of rated total water heating capacity is out of range
   **   ~~~   ** Min Rated Vol Flow Per Watt=[4.027E-005], Rated Vol Flow Per Watt=[1.510E-004], Max Rated Vol Flow Per Watt=[8.056E-005]. See Input-Output Reference Manual for valid range.
   ************* SizeFan: : Potential issue with equipment sizing for Fan:OnOff HEAT PUMP WATER HEATER FAN
   **   ~~~   ** User-Specified Maximum Flow Rate [m3/s] = 0.22653
   **   ~~~   ** differs from Design Size Maximum Flow Rate [m3/s] = 7.55250E-002
   **   ~~~   ** This may, or may not, indicate mismatched component sizes.
   **   ~~~   ** Verify that the value entered is intended and is consistent with other components.
   ** Warning ** Water heater = WATER HEATER TANK:  Recovery Efficiency and Energy Factor could not be calculated during the test for standard ratings
   **   ~~~   ** Setpoint was never recovered and/or heater never turned on
   ** Warning ** Check input. Pump nominal power or motor efficiency is set to 0, for pump=MAINS PRESSURE
   ** Warning ** Output:Meter: invalid Key Name="ELECTRIC_RANGE:INTERIOREQUIPMENT:ELECTRICITY" - not found.
   ** Warning ** Output:Meter: invalid Key Name="ELECTRIC_DRYER:INTERIOREQUIPMENT:ELECTRICITY" - not found.
   ** Warning ** Output:Meter: invalid Key Name="HEATRECOVERY:ELECTRICITY" - not found.
   ** Warning ** Output:Meter: invalid Key Name="HEATING:NATURALGAS" - not found.
   ** Warning ** Output:Meter: invalid Key Name="WATERSYSTEMS:NATURALGAS" - not found.
   ** Warning ** Output:Meter: invalid Key Name="PROPANE:FACILITY" - not found.
   ** Warning ** Output:Meter: invalid Key Name="HEATING:PROPANE" - not found.
   ************* Testing Individual Branch Integrity
   ************* All Branches passed integrity testing
   ************* Testing Individual Supply Air Path Integrity
   ************* All Supply Air Paths passed integrity testing
   ************* Testing Individual Return Air Path Integrity
   ************* All Return Air Paths passed integrity testing
   ************* No node connection errors were found.
   ************* Beginning Simulation
   ** Warning ** AirflowNetwork::Solver::validate_distribution: Heat pump water heater is simulated along with an AirflowNetwork but is not included in the AirflowNetwork.
   ** Warning ** CalcEquipmentFlowRates: "TOTAL HOT WATER LOAD" - Target water temperature is greater than the hot water temperature by (4.98 C)
   **   ~~~   **  Environment=EXTREME_WINTER, at Simulation time=01/15 06:00 - 06:15
   **   ~~~   ** ...target water temperature     = 53.33 C
   **   ~~~   ** ...hot water temperature        = 48.35 C
   **   ~~~   ** ...Target water temperature should be less than or equal to the hot water temperature. Verify temperature setpoints and schedules.
   ** Warning ** SimHVAC: Maximum iterations (20) exceeded for all HVAC loops, at EXTREME_WINTER, 01/19 08:30 - 08:45
   **   ~~~   ** The solution for one or more of the Air Loop HVAC systems did not appear to converge
   **   ~~~   ** Air System Named = CENTRAL SYSTEM did not converge for mass flow rate
   **   ~~~   ** Check values should be zero. Most Recent values listed first.
   **   ~~~   ** Demand-to-Supply interface mass flow rate check value iteration history trace: 6.961275E-002,6.961275E-002,6.961275E-002,6.961275E-002,6.961275E-002,6.961275E-002,6.961275E-002,6.961275E-002,6.961275E-002,6.961275E-002,
   **   ~~~   ** Supply-to-demand interface deck 1 mass flow rate check value iteration history trace: 6.961275E-002,6.961275E-002,6.961275E-002,6.961275E-002,6.961275E-002,6.961275E-002,6.961275E-002,6.961275E-002,6.961275E-002,6.961275E-002,
   **   ~~~   ** Air System Named = CENTRAL SYSTEM did not converge for energy
   **   ~~~   ** Check values should be zero. Most Recent values listed first.
   **   ~~~   ** Demand-to-Supply interface energy check value iteration history trace: 1379.399310,1379.399309,1379.399309,1379.399309,1379.399309,1379.399309,1379.399309,1379.399309,1379.399309,1379.399309,
   **   ~~~   ** Supply-to-demand interface deck 1 energy check value iteration history trace: 2349.392072,2349.392072,2349.392071,2349.392071,2349.392071,2349.392071,2349.392071,2349.392071,2349.392071,2349.392071,
   ** Warning ** SimHVAC: Maximum iterations (20) exceeded for all HVAC loops, at ANNUAL, 01/01 03:23 - 03:30
   **   ~~~   ** The solution for one or more of the Air Loop HVAC systems did not appear to converge
   **   ~~~   ** Air System Named = CENTRAL SYSTEM did not converge for mass flow rate
   **   ~~~   ** Check values should be zero. Most Recent values listed first.
   **   ~~~   ** Demand-to-Supply interface mass flow rate check value iteration history trace: 4.832035E-002,4.832035E-002,4.832035E-002,4.832035E-002,4.832035E-002,4.832035E-002,4.832035E-002,4.832035E-002,4.832035E-002,4.832035E-002,
   **   ~~~   ** Supply-to-demand interface deck 1 mass flow rate check value iteration history trace: 4.832035E-002,4.832035E-002,4.832035E-002,4.832035E-002,4.832035E-002,4.832035E-002,4.832035E-002,4.832035E-002,4.832035E-002,4.832035E-002,
   **   ~~~   ** Air System Named = CENTRAL SYSTEM did not converge for energy
   **   ~~~   ** Check values should be zero. Most Recent values listed first.
   **   ~~~   ** Demand-to-Supply interface energy check value iteration history trace: 904.415192,904.415192,904.415192,904.415192,904.415192,904.415192,904.415192,904.415192,904.415192,904.415192,
   **   ~~~   ** Supply-to-demand interface deck 1 energy check value iteration history trace: 1613.807643,1613.807643,1613.807643,1613.807643,1613.807643,1613.807643,1613.807643,1613.807643,1613.807643,1613.807643,
   ** Warning ** SimHVAC: Maximum iterations (20) exceeded for all HVAC loops, at ANNUAL, 01/02 18:45 - 19:00
   **   ~~~   ** The solution for one or more of the Air Loop HVAC systems did not appear to converge
   **   ~~~   ** Air System Named = CENTRAL SYSTEM did not converge for mass flow rate
   **   ~~~   ** Check values should be zero. Most Recent values listed first.
   **   ~~~   ** Demand-to-Supply interface mass flow rate check value iteration history trace: 5.418008E-002,5.418008E-002,5.418008E-002,5.418008E-002,5.418008E-002,5.418008E-002,5.418008E-002,5.418008E-002,5.418008E-002,5.418008E-002,
   **   ~~~   ** Supply-to-demand interface deck 1 mass flow rate check value iteration history trace: 5.418008E-002,5.418008E-002,5.418008E-002,5.418008E-002,5.418008E-002,5.418008E-002,5.418008E-002,5.418008E-002,5.418008E-002,5.418008E-002,
   **   ~~~   ** Air System Named = CENTRAL SYSTEM did not converge for energy
   **   ~~~   ** Check values should be zero. Most Recent values listed first.
   **   ~~~   ** Demand-to-Supply interface energy check value iteration history trace: 1063.771802,1063.771802,1063.771802,1063.771802,1063.771802,1063.771802,1063.771802,1063.771802,1063.771802,1063.771802,
   **   ~~~   ** Supply-to-demand interface deck 1 energy check value iteration history trace: 1869.704059,1869.704059,1869.704059,1869.704059,1869.704059,1869.704059,1869.704059,1869.704059,1869.704059,1869.704059,
   ** Warning ** SimHVAC: Maximum iterations (20) exceeded for all HVAC loops, at ANNUAL, 01/09 08:45 - 09:00
   **   ~~~   ** The solution for one or more of the Air Loop HVAC systems did not appear to converge
   **   ~~~   ** Air System Named = CENTRAL SYSTEM did not converge for mass flow rate
   **   ~~~   ** Check values should be zero. Most Recent values listed first.
   **   ~~~   ** Demand-to-Supply interface mass flow rate check value iteration history trace: 7.415413E-002,7.415413E-002,7.415413E-002,7.415413E-002,7.415413E-002,7.415413E-002,7.415413E-002,7.415413E-002,7.415413E-002,7.415413E-002,
   **   ~~~   ** Supply-to-demand interface deck 1 mass flow rate check value iteration history trace: 7.415413E-002,7.415413E-002,7.415413E-002,7.415413E-002,7.415413E-002,7.415413E-002,7.415413E-002,7.415413E-002,7.415413E-002,7.415413E-002,
   **   ~~~   ** Air System Named = CENTRAL SYSTEM did not converge for energy
   **   ~~~   ** Check values should be zero. Most Recent values listed first.
   **   ~~~   ** Demand-to-Supply interface energy check value iteration history trace: 1469.310487,1469.310487,1469.310487,1469.310487,1469.310487,1469.310487,1469.310487,1469.310487,1469.310487,1469.310487,
   **   ~~~   ** Supply-to-demand interface deck 1 energy check value iteration history trace: 2466.496215,2466.496215,2466.496214,2466.496214,2466.496214,2466.496214,2466.496214,2466.496214,2466.496214,2466.496214,
   ** Warning ** SimHVAC: Maximum iterations (20) exceeded for all HVAC loops, at ANNUAL, 01/10 08:45 - 09:00
   **   ~~~   ** The solution for one or more of the Air Loop HVAC systems did not appear to converge
   **   ~~~   ** Air System Named = CENTRAL SYSTEM did not converge for mass flow rate
   **   ~~~   ** Check values should be zero. Most Recent values listed first.
   **   ~~~   ** Demand-to-Supply interface mass flow rate check value iteration history trace: 6.488770E-002,6.488770E-002,6.488770E-002,6.488770E-002,6.488770E-002,6.488770E-002,6.488770E-002,6.488770E-002,6.488770E-002,6.488770E-002,
   **   ~~~   ** Supply-to-demand interface deck 1 mass flow rate check value iteration history trace: 6.488770E-002,6.488770E-002,6.488770E-002,6.488770E-002,6.488770E-002,6.488770E-002,6.488770E-002,6.488770E-002,6.488770E-002,6.488770E-002,
   **   ~~~   ** Air System Named = CENTRAL SYSTEM did not converge for energy
   **   ~~~   ** Check values should be zero. Most Recent values listed first.
   **   ~~~   ** Demand-to-Supply interface energy check value iteration history trace: 1285.765225,1285.765225,1285.765225,1285.765225,1285.765224,1285.765224,1285.765224,1285.765224,1285.765224,1285.765224,
   **   ~~~   ** Supply-to-demand interface deck 1 energy check value iteration history trace: 2143.365432,2143.365432,2143.365432,2143.365432,2143.365432,2143.365431,2143.365431,2143.365431,2143.365431,2143.365431,
   ** Warning ** SimHVAC: Maximum iterations (20) exceeded for all HVAC loops, at ANNUAL, 01/20 09:00 - 09:04
   **   ~~~   ** The solution for one or more of the Air Loop HVAC systems did not appear to converge
   **   ~~~   ** Air System Named = CENTRAL SYSTEM did not converge for mass flow rate
   **   ~~~   ** Check values should be zero. Most Recent values listed first.
   **   ~~~   ** Demand-to-Supply interface mass flow rate check value iteration history trace: 7.488155E-002,7.488155E-002,7.488155E-002,7.488155E-002,7.488155E-002,7.488155E-002,7.488155E-002,7.488155E-002,7.488155E-002,7.488155E-002,
   **   ~~~   ** Supply-to-demand interface deck 1 mass flow rate check value iteration history trace: 7.488155E-002,7.488155E-002,7.488155E-002,7.488155E-002,7.488155E-002,7.488155E-002,7.488155E-002,7.488155E-002,7.488155E-002,7.488155E-002,
   **   ~~~   ** Air System Named = CENTRAL SYSTEM did not converge for energy
   **   ~~~   ** Check values should be zero. Most Recent values listed first.
   **   ~~~   ** Demand-to-Supply interface energy check value iteration history trace: 1483.775236,1483.775236,1483.775236,1483.775236,1483.775236,1483.775236,1483.775236,1483.775236,1483.775236,1483.775236,
   **   ~~~   ** Supply-to-demand interface deck 1 energy check value iteration history trace: 2478.078943,2478.078942,2478.078942,2478.078942,2478.078942,2478.078942,2478.078942,2478.078942,2478.078942,2478.078941,
   ** Warning ** SimHVAC: Maximum iterations (20) exceeded for all HVAC loops, at ANNUAL, 02/06 08:45 - 09:00
   **   ~~~   ** The solution for one or more of the Air Loop HVAC systems did not appear to converge
   **   ~~~   ** Air System Named = CENTRAL SYSTEM did not converge for mass flow rate
   **   ~~~   ** Check values should be zero. Most Recent values listed first.
   **   ~~~   ** Demand-to-Supply interface mass flow rate check value iteration history trace: 7.186239E-002,7.186239E-002,7.186239E-002,7.186239E-002,7.186239E-002,7.186239E-002,7.186239E-002,7.186239E-002,7.186239E-002,7.186239E-002,
   **   ~~~   ** Supply-to-demand interface deck 1 mass flow rate check value iteration history trace: 7.186239E-002,7.186239E-002,7.186239E-002,7.186239E-002,7.186239E-002,7.186239E-002,7.186239E-002,7.186239E-002,7.186239E-002,7.186239E-002,
   **   ~~~   ** Air System Named = CENTRAL SYSTEM did not converge for energy
   **   ~~~   ** Check values should be zero. Most Recent values listed first.
   **   ~~~   ** Demand-to-Supply interface energy check value iteration history trace: 1423.996360,1423.996360,1423.996360,1423.996360,1423.996360,1423.996360,1423.996360,1423.996360,1423.996360,1423.996360,
   **   ~~~   ** Supply-to-demand interface deck 1 energy check value iteration history trace: 2443.987623,2443.987623,2443.987623,2443.987623,2443.987623,2443.987623,2443.987623,2443.987623,2443.987623,2443.987622,
   ** Warning ** SimHVAC: Maximum iterations (20) exceeded for all HVAC loops, at ANNUAL, 02/09 08:25 - 08:30
   **   ~~~   ** The solution for one or more of the Air Loop HVAC systems did not appear to converge
   **   ~~~   ** Air System Named = CENTRAL SYSTEM did not converge for mass flow rate
   **   ~~~   ** Check values should be zero. Most Recent values listed first.
   **   ~~~   ** Demand-to-Supply interface mass flow rate check value iteration history trace: 6.344775E-002,6.344775E-002,6.344775E-002,6.344775E-002,6.344775E-002,6.344775E-002,6.344775E-002,6.344775E-002,6.344775E-002,6.344775E-002,
   **   ~~~   ** Supply-to-demand interface deck 1 mass flow rate check value iteration history trace: 6.344775E-002,6.344775E-002,6.344775E-002,6.344775E-002,6.344775E-002,6.344775E-002,6.344775E-002,6.344775E-002,6.344775E-002,6.344775E-002,
   **   ~~~   ** Air System Named = CENTRAL SYSTEM did not converge for energy
   **   ~~~   ** Check values should be zero. Most Recent values listed first.
   **   ~~~   ** Demand-to-Supply interface energy check value iteration history trace: 1246.839835,1246.839835,1246.839835,1246.839835,1246.839835,1246.839835,1246.839835,1246.839834,1246.839834,1246.839834,
   **   ~~~   ** Supply-to-demand interface deck 1 energy check value iteration history trace: 2147.236700,2147.236700,2147.236700,2147.236700,2147.236700,2147.236700,2147.236699,2147.236699,2147.236699,2147.236699,
   ** Warning ** SimHVAC: Maximum iterations (20) exceeded for all HVAC loops, at ANNUAL, 03/05 07:30 - 07:45
   **   ~~~   ** The solution for one or more of the Air Loop HVAC systems did not appear to converge
   **   ~~~   ** Air System Named = CENTRAL SYSTEM did not converge for mass flow rate
   **   ~~~   ** Check values should be zero. Most Recent values listed first.
   **   ~~~   ** Demand-to-Supply interface mass flow rate check value iteration history trace: 5.879539E-002,5.879539E-002,5.879539E-002,5.879539E-002,5.879539E-002,5.879539E-002,5.879539E-002,5.879539E-002,5.879539E-002,5.879539E-002,
   **   ~~~   ** Supply-to-demand interface deck 1 mass flow rate check value iteration history trace: 5.879539E-002,5.879539E-002,5.879539E-002,5.879539E-002,5.879539E-002,5.879539E-002,5.879539E-002,5.879539E-002,5.879539E-002,5.879539E-002,
   **   ~~~   ** Air System Named = CENTRAL SYSTEM did not converge for energy
   **   ~~~   ** Check values should be zero. Most Recent values listed first.
   **   ~~~   ** Demand-to-Supply interface energy check value iteration history trace: 1165.198478,1165.198478,1165.198478,1165.198478,1165.198478,1165.198478,1165.198478,1165.198478,1165.198478,1165.198478,
   **   ~~~   ** Supply-to-demand interface deck 1 energy check value iteration history trace: 1979.039784,1979.039784,1979.039783,1979.039783,1979.039783,1979.039783,1979.039783,1979.039783,1979.039783,1979.039783,
   ** Warning ** SimHVAC: Maximum iterations (20) exceeded for all HVAC loops, at ANNUAL, 03/07 08:30 - 08:45
   **   ~~~   ** The solution for one or more of the Air Loop HVAC systems did not appear to converge
   **   ~~~   ** Air System Named = CENTRAL SYSTEM did not converge for mass flow rate
   **   ~~~   ** Check values should be zero. Most Recent values listed first.
   **   ~~~   ** Demand-to-Supply interface mass flow rate check value iteration history trace: 6.111902E-002,6.111902E-002,6.111902E-002,6.111902E-002,6.111902E-002,6.111902E-002,6.111902E-002,6.111902E-002,6.111902E-002,6.111902E-002,
   **   ~~~   ** Supply-to-demand interface deck 1 mass flow rate check value iteration history trace: 6.111902E-002,6.111902E-002,6.111902E-002,6.111902E-002,6.111902E-002,6.111902E-002,6.111902E-002,6.111902E-002,6.111902E-002,6.111902E-002,
   **   ~~~   ** Air System Named = CENTRAL SYSTEM did not converge for energy
   **   ~~~   ** Check values should be zero. Most Recent values listed first.
   **   ~~~   ** Demand-to-Supply interface energy check value iteration history trace: 1211.158911,1211.158911,1211.158911,1211.158911,1211.158911,1211.158911,1211.158911,1211.158911,1211.158911,1211.158911,
   **   ~~~   ** Supply-to-demand interface deck 1 energy check value iteration history trace: 2074.074954,2074.074954,2074.074954,2074.074954,2074.074954,2074.074954,2074.074954,2074.074954,2074.074954,2074.074953,
   ** Warning ** SimHVAC: Maximum iterations (20) exceeded for all HVAC loops, at ANNUAL, 03/24 06:53 - 07:00
   **   ~~~   ** The solution for one or more of the Air Loop HVAC systems did not appear to converge
   **   ~~~   ** Air System Named = CENTRAL SYSTEM did not converge for mass flow rate
   **   ~~~   ** Check values should be zero. Most Recent values listed first.
   **   ~~~   ** Demand-to-Supply interface mass flow rate check value iteration history trace: 6.313027E-002,6.313027E-002,6.313027E-002,6.313027E-002,6.313027E-002,6.313027E-002,6.313027E-002,6.313027E-002,6.313027E-002,6.313027E-002,
   **   ~~~   ** Supply-to-demand interface deck 1 mass flow rate check value iteration history trace: 6.313027E-002,6.313027E-002,6.313027E-002,6.313027E-002,6.313027E-002,6.313027E-002,6.313027E-002,6.313027E-002,6.313027E-002,6.313027E-002,
   **   ~~~   ** Air System Named = CENTRAL SYSTEM did not converge for energy
   **   ~~~   ** Check values should be zero. Most Recent values listed first.
   **   ~~~   ** Demand-to-Supply interface energy check value iteration history trace: 1249.795572,1249.795572,1249.795572,1249.795572,1249.795572,1249.795572,1249.795572,1249.795572,1249.795572,1249.795572,
   **   ~~~   ** Supply-to-demand interface deck 1 energy check value iteration history trace: 2106.968415,2106.968415,2106.968414,2106.968414,2106.968414,2106.968414,2106.968414,2106.968414,2106.968414,2106.968414,
   ** Warning ** SimHVAC: Maximum iterations (20) exceeded for all HVAC loops, at ANNUAL, 03/24 07:40 - 07:43
   **   ~~~   ** The solution for one or more of the Air Loop HVAC systems did not appear to converge
   **   ~~~   ** Air System Named = CENTRAL SYSTEM did not converge for mass flow rate
   **   ~~~   ** Check values should be zero. Most Recent values listed first.
   **   ~~~   ** Demand-to-Supply interface mass flow rate check value iteration history trace: 6.987735E-002,6.987735E-002,6.987735E-002,6.987735E-002,6.987735E-002,6.987735E-002,6.987735E-002,6.987735E-002,6.987735E-002,6.987735E-002,
   **   ~~~   ** Supply-to-demand interface deck 1 mass flow rate check value iteration history trace: 6.987735E-002,6.987735E-002,6.987735E-002,6.987735E-002,6.987735E-002,6.987735E-002,6.987735E-002,6.987735E-002,6.987735E-002,6.987735E-002,
   **   ~~~   ** Air System Named = CENTRAL SYSTEM did not converge for energy
   **   ~~~   ** Check values should be zero. Most Recent values listed first.
   **   ~~~   ** Demand-to-Supply interface energy check value iteration history trace: 1378.190796,1378.190795,1378.190795,1378.190795,1378.190795,1378.190795,1378.190795,1378.190795,1378.190795,1378.190795,
   **   ~~~   ** Supply-to-demand interface deck 1 energy check value iteration history trace: 2366.387486,2366.387486,2366.387485,2366.387485,2366.387485,2366.387485,2366.387485,2366.387485,2366.387485,2366.387485,
   ** Warning ** SimHVAC: Maximum iterations (20) exceeded for all HVAC loops, at ANNUAL, 04/23 00:53 - 01:00
   **   ~~~   ** The solution for one or more of the Air Loop HVAC systems did not appear to converge
   **   ~~~   ** Air System Named = CENTRAL SYSTEM did not converge for mass flow rate
   **   ~~~   ** Check values should be zero. Most Recent values listed first.
   **   ~~~   ** Demand-to-Supply interface mass flow rate check value iteration history trace: 0.106990,0.106990,0.106990,0.106990,0.106990,0.106990,0.106990,0.106990,0.106990,0.106990,
   **   ~~~   ** Supply-to-demand interface deck 1 mass flow rate check value iteration history trace: 0.106990,0.106990,0.106990,0.106990,0.106990,0.106990,0.106990,0.106990,0.106990,0.106990,
   **   ~~~   ** Air System Named = CENTRAL SYSTEM did not converge for energy
   **   ~~~   ** Check values should be zero. Most Recent values listed first.
   **   ~~~   ** Demand-to-Supply interface energy check value iteration history trace: 2637.323073,2637.323074,2637.323075,2637.323076,2637.323077,2637.323077,2637.323078,2637.323079,2637.323080,2637.323081,
   **   ~~~   ** Supply-to-demand interface deck 1 energy check value iteration history trace: 1327.167939,1327.167939,1327.167939,1327.167940,1327.167940,1327.167941,1327.167941,1327.167941,1327.167942,1327.167942,
   ** Warning ** SimHVAC: Maximum iterations (20) exceeded for all HVAC loops, at ANNUAL, 04/30 07:35 - 07:36
   **   ~~~   ** The solution for one or more of the Air Loop HVAC systems did not appear to converge
   **   ~~~   ** Air System Named = CENTRAL SYSTEM did not converge for mass flow rate
   **   ~~~   ** Check values should be zero. Most Recent values listed first.
   **   ~~~   ** Demand-to-Supply interface mass flow rate check value iteration history trace: 0.417553,0.417553,0.417553,0.417553,0.417553,0.417553,0.417553,0.417553,0.417553,0.417553,
   **   ~~~   ** Supply-to-demand interface deck 1 mass flow rate check value iteration history trace: 0.417553,0.417553,0.417553,0.417553,0.417553,0.417553,0.417553,0.417553,0.417553,0.417553,
   **   ~~~   ** Air System Named = CENTRAL SYSTEM did not converge for energy
   **   ~~~   ** Check values should be zero. Most Recent values listed first.
   **   ~~~   ** Demand-to-Supply interface energy check value iteration history trace: 9903.832082,9903.832083,9903.832085,9903.832087,9903.832088,9903.832090,9903.832091,9903.832093,9903.832094,9903.832096,
   **   ~~~   ** Supply-to-demand interface deck 1 energy check value iteration history trace: 5428.709648,5428.709649,5428.709649,5428.709650,5428.709651,5428.709652,5428.709653,5428.709654,5428.709655,5428.709656,
   ************* Simulation Error Summary *************
   ** Warning ** The following Report Variables were requested but not generated -- check.rdd file
   **   ~~~   ** Either the IDF did not contain these elements, the variable name is misspelled,
   **   ~~~   ** or the requested variable is an advanced output which requires Output : Diagnostics, DisplayAdvancedReportVariables;
   ************* Key=*, VarName=BASEBOARD TOTAL HEATING ENERGY, Frequency=
   ************* Key=*, VarName=WATER HEATER NATURALGAS ENERGY, Frequency=
   ************* Key=*, VarName=COOLING COIL TOTAL HEATING ENERGY, Frequency=
   ************* There are 34 unused schedules in input.
   ************* There are 388 unused week schedules in input.
   ************* There are 396 unused day schedules in input.
   ************* Use Output:Diagnostics,DisplayUnusedSchedules; to see them.
   *************
   ************* ===== Recurring Error Summary =====
   ************* The following recurring error messages occurred.
   *************
   *************  ** Warning ** "TOTAL HOT WATER LOAD" - Target water temperature should be less than or equal to the hot water temperature error continues...
   *************  **   ~~~   **   This error occurred 153555 total times;
   *************  **   ~~~   **   during Warmup 0 times;
   *************  **   ~~~   **   during Sizing 0 times.
   *************  **   ~~~   **   Max=10.722832  Min=4.151546E-004
   *************
   *************  ** Warning ** SimHVAC: Exceeding Maximum iterations for all HVAC loops, during ANNUAL continues
   *************  **   ~~~   **   This error occurred 16 total times;
   *************  **   ~~~   **   during Warmup 0 times;
   *************  **   ~~~   **   during Sizing 0 times.
   *************
   *************
   ************* ===== Final Error Summary =====
   ************* The following error categories occurred.  Consider correcting or noting.
   ************* Nominally Unused Constructions
   ************* ..The nominally unused constructions warning is provided to alert you to potential conditions that can cause
   ************* ..extra time during simulation. Each construction is calculated by the algorithm indicated in the HeatBalanceAlgorithm
   ************* ..object. You may remove the constructions indicated (when you use the DisplayExtraWarnings option).
   *************
   ************* EnergyPlus Warmup Error Summary. During Warmup: 1 Warning; 0 Severe Errors.
   ************* EnergyPlus Sizing Error Summary. During Sizing: 4 Warning; 0 Severe Errors.
   ************* EnergyPlus Completed Successfully-- 153603 Warning; 0 Severe Errors; Elapsed Time=00hr 01min 42.61sec
