Program Version,EnergyPlus, Version 22.2.0-c249759bad, YMD=2023.09.01 19:31,
   ************* Beginning Zone Sizing Calculations
   ** Warning ** ProcessScheduleInput: Schedule:Constant="ALWAYS ON DISCRETE", Schedule Type Limits Name="ONOFF" not found -- will not be validated
   ** Warning ** Foundation:Kiva="KIVA FOUNDATION", no Interior Horizontal Insulation Material Name defined
   **   ~~~   ** Interior Horizontal Insulation Depth will not be used.
   ** Warning ** CheckUsedConstructions: There are 15 nominally unused constructions in input.
   **   ~~~   ** Each Unused construction is shown.
   ************* Construction=INTERIOR FLOOR
   ************* Construction=INTERIOR WINDOW
   ************* Construction=EXTERIOR DOOR
   ************* Construction=INTERIOR DOOR
   ************* Construction=GABLE CONSTRUCTION
   ************* Construction=CRAWL_FLOOR
   ************* Construction=INSULATED PIPE
   ************* Construction=PLAIN PIPE
   ************* Construction=TDD PIPE
   ************* Construction=TDD DOME
   ************* Construction=TDD DIFFUSER
   ************* Construction=CRAWL WALL
   ************* Construction=CEILING-FLOOR-LAYER
   ************* Construction=SLAB CONSTRUCTION W FULL R10 INSULATION
   ************* Construction=SLAB CONSTRUCTION W FULL R5 INSULATION
   ** Warning ** GetDXCoils: Coil:Heating:DX:SingleSpeed="DX_HEATING_COIL" curve values
   **   ~~~   ** ... Defrost Energy Input Ratio Function of Temperature Curve Name = DEFROSTEIR output is not equal to 1.0 (+ or - 10%) at rated conditions.
   **   ~~~   ** ... Curve output at rated conditions = 0.152
   ************* Beginning System Sizing Calculations
   ************* Beginning Plant Sizing Calculations
   ** Warning ** SizeDXCoil Coil:Cooling:DX:SingleSpeed DX_COOLING_COIL
   **   ~~~   ** ...Gross Rated Total Cooling Capacity [W] will be limited by the maximum rated volume flow per rated total capacity ratio.
   **   ~~~   ** ...DX coil volume flow rate ( m3/s ) = 0.405205
   **   ~~~   ** ...Requested capacity ( W ) = 6240.583
   **   ~~~   ** ...Requested flow/capacity ratio ( m3/s/W ) = 6.493E-005
   **   ~~~   ** ...Maximum flow/capacity ratio ( m3/s/W ) = 6.041E-005
   **   ~~~   ** ...Adjusted capacity ( W ) = 6707.596
   ** Warning ** Coil:WaterHeating:AirToWaterHeatPump:Wrapped "HEAT PUMP WATER HEATER EVAPORATOR": Rated air volume flow rate per watt of rated total water heating capacity is out of range
   **   ~~~   ** Min Rated Vol Flow Per Watt=[4.027E-005], Rated Vol Flow Per Watt=[1.510E-004], Max Rated Vol Flow Per Watt=[8.056E-005]. See Input-Output Reference Manual for valid range.
   ************* SizeFan: : Potential issue with equipment sizing for Fan:OnOff HEAT PUMP WATER HEATER FAN
   **   ~~~   ** User-Specified Maximum Flow Rate [m3/s] = 0.22653
   **   ~~~   ** differs from Design Size Maximum Flow Rate [m3/s] = 7.55250E-002
   **   ~~~   ** This may, or may not, indicate mismatched component sizes.
   **   ~~~   ** Verify that the value entered is intended and is consistent with other components.
   ** Warning ** Water heater = WATER HEATER TANK:  Recovery Efficiency and Energy Factor could not be calculated during the test for standard ratings
   **   ~~~   ** Setpoint was never recovered and/or heater never turned on
   ** Warning ** Check input. Pump nominal power or motor efficiency is set to 0, for pump=MAINS PRESSURE
   ** Warning ** Output:Meter: invalid Key Name="ELECTRIC_RANGE:INTERIOREQUIPMENT:ELECTRICITY" - not found.
   ** Warning ** Output:Meter: invalid Key Name="ELECTRIC_DRYER:INTERIOREQUIPMENT:ELECTRICITY" - not found.
   ** Warning ** Output:Meter: invalid Key Name="HEATRECOVERY:ELECTRICITY" - not found.
   ** Warning ** Output:Meter: invalid Key Name="HEATING:NATURALGAS" - not found.
   ** Warning ** Output:Meter: invalid Key Name="WATERSYSTEMS:NATURALGAS" - not found.
   ** Warning ** Output:Meter: invalid Key Name="PROPANE:FACILITY" - not found.
   ** Warning ** Output:Meter: invalid Key Name="HEATING:PROPANE" - not found.
   ************* Testing Individual Branch Integrity
   ************* All Branches passed integrity testing
   ************* Testing Individual Supply Air Path Integrity
   ************* All Supply Air Paths passed integrity testing
   ************* Testing Individual Return Air Path Integrity
   ************* All Return Air Paths passed integrity testing
   ************* No node connection errors were found.
   ************* Beginning Simulation
   ** Warning ** AirflowNetwork::Solver::validate_distribution: Heat pump water heater is simulated along with an AirflowNetwork but is not included in the AirflowNetwork.
   ** Warning ** CalcEquipmentFlowRates: "TOTAL HOT WATER LOAD" - Target water temperature is greater than the hot water temperature by (0.65 C)
   **   ~~~   **  Environment=EXTREME_WINTER, at Simulation time=01/27 06:00 - 06:15
   **   ~~~   ** ...target water temperature     = 53.33 C
   **   ~~~   ** ...hot water temperature        = 52.69 C
   **   ~~~   ** ...Target water temperature should be less than or equal to the hot water temperature. Verify temperature setpoints and schedules.
   ** Warning ** SimHVAC: Maximum iterations (20) exceeded for all HVAC loops, at EXTREME_SUMMER, 08/02 04:23 - 04:30
   **   ~~~   ** The solution for one or more of the Air Loop HVAC systems did not appear to converge
   **   ~~~   ** Air System Named = CENTRAL SYSTEM did not converge for mass flow rate
   **   ~~~   ** Check values should be zero. Most Recent values listed first.
   **   ~~~   ** Demand-to-Supply interface mass flow rate check value iteration history trace: 0.201276,0.201276,0.201276,0.201276,0.201276,0.201276,0.201276,0.201276,0.201276,0.201276,
   **   ~~~   ** Supply-to-demand interface deck 1 mass flow rate check value iteration history trace: 0.201276,0.201276,0.201276,0.201276,0.201276,0.201276,0.201276,0.201276,0.201276,0.201276,
   **   ~~~   ** Air System Named = CENTRAL SYSTEM did not converge for energy
   **   ~~~   ** Check values should be zero. Most Recent values listed first.
   **   ~~~   ** Demand-to-Supply interface energy check value iteration history trace: 5021.566747,5021.566748,5021.566750,5021.566752,5021.566754,5021.566756,5021.566758,5021.566760,5021.566762,5021.566764,
   **   ~~~   ** Supply-to-demand interface deck 1 energy check value iteration history trace: 2867.950720,2867.950721,2867.950722,2867.950723,2867.950724,2867.950725,2867.950726,2867.950727,2867.950728,2867.950729,
   ** Warning ** SimHVAC: Maximum iterations (20) exceeded for all HVAC loops, at ANNUAL, 01/01 12:30 - 12:45
   **   ~~~   ** The solution for one or more of the Air Loop HVAC systems did not appear to converge
   **   ~~~   ** Air System Named = CENTRAL SYSTEM did not converge for mass flow rate
   **   ~~~   ** Check values should be zero. Most Recent values listed first.
   **   ~~~   ** Demand-to-Supply interface mass flow rate check value iteration history trace: 8.778743E-002,8.778743E-002,8.778743E-002,8.778743E-002,8.778743E-002,8.778743E-002,8.778743E-002,8.778743E-002,8.778743E-002,8.778743E-002,
   **   ~~~   ** Supply-to-demand interface deck 1 mass flow rate check value iteration history trace: 8.778743E-002,8.778743E-002,8.778743E-002,8.778743E-002,8.778743E-002,8.778743E-002,8.778743E-002,8.778743E-002,8.778743E-002,8.778743E-002,
   **   ~~~   ** Air System Named = CENTRAL SYSTEM did not converge for energy
   **   ~~~   ** Check values should be zero. Most Recent values listed first.
   **   ~~~   ** Demand-to-Supply interface energy check value iteration history trace: 1739.605892,1739.605892,1739.605892,1739.605892,1739.605892,1739.605892,1739.605892,1739.605891,1739.605891,1739.605891,
   **   ~~~   ** Supply-to-demand interface deck 1 energy check value iteration history trace: 2626.668189,2626.668188,2626.668188,2626.668188,2626.668188,2626.668188,2626.668188,2626.668187,2626.668187,2626.668187,
   ** Warning ** SimHVAC: Maximum iterations (20) exceeded for all HVAC loops, at ANNUAL, 01/26 16:45 - 17:00
   **   ~~~   ** The solution for one or more of the Air Loop HVAC systems did not appear to converge
   **   ~~~   ** Air System Named = CENTRAL SYSTEM did not converge for mass flow rate
   **   ~~~   ** Check values should be zero. Most Recent values listed first.
   **   ~~~   ** Demand-to-Supply interface mass flow rate check value iteration history trace: 7.841502E-002,7.841502E-002,7.841502E-002,7.841502E-002,7.841502E-002,7.841502E-002,7.841502E-002,7.841502E-002,7.841502E-002,7.841502E-002,
   **   ~~~   ** Supply-to-demand interface deck 1 mass flow rate check value iteration history trace: 7.841502E-002,7.841502E-002,7.841502E-002,7.841502E-002,7.841502E-002,7.841502E-002,7.841502E-002,7.841502E-002,7.841502E-002,7.841502E-002,
   **   ~~~   ** Air System Named = CENTRAL SYSTEM did not converge for energy
   **   ~~~   ** Check values should be zero. Most Recent values listed first.
   **   ~~~   ** Demand-to-Supply interface energy check value iteration history trace: 1552.075203,1552.075203,1552.075203,1552.075203,1552.075203,1552.075203,1552.075203,1552.075202,1552.075202,1552.075202,
   **   ~~~   ** Supply-to-demand interface deck 1 energy check value iteration history trace: 2444.133813,2444.133813,2444.133813,2444.133813,2444.133813,2444.133813,2444.133812,2444.133812,2444.133812,2444.133812,
   ** Warning ** SimHVAC: Maximum iterations (20) exceeded for all HVAC loops, at ANNUAL, 01/27 16:00 - 16:15
   **   ~~~   ** The solution for one or more of the Air Loop HVAC systems did not appear to converge
   **   ~~~   ** Air System Named = CENTRAL SYSTEM did not converge for mass flow rate
   **   ~~~   ** Check values should be zero. Most Recent values listed first.
   **   ~~~   ** Demand-to-Supply interface mass flow rate check value iteration history trace: 8.582763E-002,8.582763E-002,8.582763E-002,8.582763E-002,8.582763E-002,8.582763E-002,8.582763E-002,8.582763E-002,8.582763E-002,8.582763E-002,
   **   ~~~   ** Supply-to-demand interface deck 1 mass flow rate check value iteration history trace: 8.582763E-002,8.582763E-002,8.582763E-002,8.582763E-002,8.582763E-002,8.582763E-002,8.582763E-002,8.582763E-002,8.582763E-002,8.582763E-002,
   **   ~~~   ** Air System Named = CENTRAL SYSTEM did not converge for energy
   **   ~~~   ** Check values should be zero. Most Recent values listed first.
   **   ~~~   ** Demand-to-Supply interface energy check value iteration history trace: 1700.722457,1700.722457,1700.722457,1700.722457,1700.722457,1700.722457,1700.722457,1700.722456,1700.722456,1700.722456,
   **   ~~~   ** Supply-to-demand interface deck 1 energy check value iteration history trace: 2624.372060,2624.372059,2624.372059,2624.372059,2624.372059,2624.372059,2624.372059,2624.372058,2624.372058,2624.372058,
   ** Warning ** SimHVAC: Maximum iterations (20) exceeded for all HVAC loops, at ANNUAL, 02/02 17:00 - 17:04
   **   ~~~   ** The solution for one or more of the Air Loop HVAC systems did not appear to converge
   **   ~~~   ** Air System Named = CENTRAL SYSTEM did not converge for mass flow rate
   **   ~~~   ** Check values should be zero. Most Recent values listed first.
   **   ~~~   ** Demand-to-Supply interface mass flow rate check value iteration history trace: 0.103269,0.103269,0.103269,0.103269,0.103269,0.103269,0.103269,0.103269,0.103269,0.103269,
   **   ~~~   ** Supply-to-demand interface deck 1 mass flow rate check value iteration history trace: 0.103269,0.103269,0.103269,0.103269,0.103269,0.103269,0.103269,0.103269,0.103269,0.103269,
   **   ~~~   ** Air System Named = CENTRAL SYSTEM did not converge for energy
   **   ~~~   ** Check values should be zero. Most Recent values listed first.
   **   ~~~   ** Demand-to-Supply interface energy check value iteration history trace: 2042.739653,2042.739653,2042.739653,2042.739653,2042.739653,2042.739652,2042.739652,2042.739652,2042.739652,2042.739652,
   **   ~~~   ** Supply-to-demand interface deck 1 energy check value iteration history trace: 3027.307426,3027.307426,3027.307425,3027.307425,3027.307425,3027.307425,3027.307424,3027.307424,3027.307424,3027.307424,
   ** Warning ** SimHVAC: Maximum iterations (20) exceeded for all HVAC loops, at ANNUAL, 02/10 15:55 - 16:00
   **   ~~~   ** The solution for one or more of the Air Loop HVAC systems did not appear to converge
   **   ~~~   ** Air System Named = CENTRAL SYSTEM did not converge for mass flow rate
   **   ~~~   ** Check values should be zero. Most Recent values listed first.
   **   ~~~   ** Demand-to-Supply interface mass flow rate check value iteration history trace: 8.955882E-002,8.955882E-002,8.955882E-002,8.955882E-002,8.955882E-002,8.955882E-002,8.955882E-002,8.955882E-002,8.955882E-002,8.955882E-002,
   **   ~~~   ** Supply-to-demand interface deck 1 mass flow rate check value iteration history trace: 8.955882E-002,8.955882E-002,8.955882E-002,8.955882E-002,8.955882E-002,8.955882E-002,8.955882E-002,8.955882E-002,8.955882E-002,8.955882E-002,
   **   ~~~   ** Air System Named = CENTRAL SYSTEM did not converge for energy
   **   ~~~   ** Check values should be zero. Most Recent values listed first.
   **   ~~~   ** Demand-to-Supply interface energy check value iteration history trace: 1760.832740,1760.832740,1760.832740,1760.832740,1760.832740,1760.832739,1760.832739,1760.832739,1760.832739,1760.832739,
   **   ~~~   ** Supply-to-demand interface deck 1 energy check value iteration history trace: 2619.925781,2619.925780,2619.925780,2619.925780,2619.925780,2619.925780,2619.925780,2619.925779,2619.925779,2619.925779,
   ** Warning ** SimHVAC: Maximum iterations (20) exceeded for all HVAC loops, at ANNUAL, 02/18 11:00 - 11:15
   **   ~~~   ** The solution for one or more of the Air Loop HVAC systems did not appear to converge
   **   ~~~   ** Air System Named = CENTRAL SYSTEM did not converge for mass flow rate
   **   ~~~   ** Check values should be zero. Most Recent values listed first.
   **   ~~~   ** Demand-to-Supply interface mass flow rate check value iteration history trace: 5.616370E-002,5.616370E-002,5.616370E-002,5.616370E-002,5.616370E-002,5.616370E-002,5.616370E-002,5.616370E-002,5.616370E-002,5.616370E-002,
   **   ~~~   ** Supply-to-demand interface deck 1 mass flow rate check value iteration history trace: 5.616370E-002,5.616370E-002,5.616370E-002,5.616370E-002,5.616370E-002,5.616370E-002,5.616370E-002,5.616370E-002,5.616370E-002,5.616370E-002,
   **   ~~~   ** Air System Named = CENTRAL SYSTEM did not converge for energy
   **   ~~~   ** Check values should be zero. Most Recent values listed first.
   **   ~~~   ** Demand-to-Supply interface energy check value iteration history trace: 1113.150859,1113.150859,1113.150859,1113.150859,1113.150859,1113.150859,1113.150859,1113.150858,1113.150858,1113.150858,
   **   ~~~   ** Supply-to-demand interface deck 1 energy check value iteration history trace: 2006.544097,2006.544097,2006.544097,2006.544096,2006.544096,2006.544096,2006.544096,2006.544096,2006.544096,2006.544096,
   ** Warning ** SimHVAC: Maximum iterations (20) exceeded for all HVAC loops, at ANNUAL, 02/28 13:30 - 13:38
   **   ~~~   ** The solution for one or more of the Air Loop HVAC systems did not appear to converge
   **   ~~~   ** Air System Named = CENTRAL SYSTEM did not converge for mass flow rate
   **   ~~~   ** Check values should be zero. Most Recent values listed first.
   **   ~~~   ** Demand-to-Supply interface mass flow rate check value iteration history trace: 4.869922E-002,4.869922E-002,4.869922E-002,4.869922E-002,4.869922E-002,4.869922E-002,4.869922E-002,4.869922E-002,4.869922E-002,4.869922E-002,
   **   ~~~   ** Supply-to-demand interface deck 1 mass flow rate check value iteration history trace: 4.869922E-002,4.869922E-002,4.869922E-002,4.869922E-002,4.869922E-002,4.869922E-002,4.869922E-002,4.869922E-002,4.869922E-002,4.869922E-002,
   **   ~~~   ** Air System Named = CENTRAL SYSTEM did not converge for energy
   **   ~~~   ** Check values should be zero. Most Recent values listed first.
   **   ~~~   ** Demand-to-Supply interface energy check value iteration history trace: 965.062864,965.062864,965.062863,965.062863,965.062863,965.062863,965.062863,965.062863,965.062863,965.062863,
   **   ~~~   ** Supply-to-demand interface deck 1 energy check value iteration history trace: 1749.252891,1749.252891,1749.252891,1749.252891,1749.252891,1749.252891,1749.252891,1749.252891,1749.252891,1749.252891,
   ** Warning ** SimHVAC: Maximum iterations (20) exceeded for all HVAC loops, at ANNUAL, 03/05 09:30 - 09:32
   **   ~~~   ** The solution for one or more of the Air Loop HVAC systems did not appear to converge
   **   ~~~   ** Air System Named = CENTRAL SYSTEM did not converge for mass flow rate
   **   ~~~   ** Check values should be zero. Most Recent values listed first.
   **   ~~~   ** Demand-to-Supply interface mass flow rate check value iteration history trace: 7.350708E-002,7.350708E-002,7.350708E-002,7.350708E-002,7.350708E-002,7.350708E-002,7.350708E-002,7.350708E-002,7.350708E-002,7.350708E-002,
   **   ~~~   ** Supply-to-demand interface deck 1 mass flow rate check value iteration history trace: 7.350708E-002,7.350708E-002,7.350708E-002,7.350708E-002,7.350708E-002,7.350708E-002,7.350708E-002,7.350708E-002,7.350708E-002,7.350708E-002,
   **   ~~~   ** Air System Named = CENTRAL SYSTEM did not converge for energy
   **   ~~~   ** Check values should be zero. Most Recent values listed first.
   **   ~~~   ** Demand-to-Supply interface energy check value iteration history trace: 1456.691705,1456.691705,1456.691705,1456.691705,1456.691705,1456.691705,1456.691705,1456.691705,1456.691705,1456.691705,
   **   ~~~   ** Supply-to-demand interface deck 1 energy check value iteration history trace: 2516.057284,2516.057283,2516.057283,2516.057283,2516.057283,2516.057283,2516.057283,2516.057283,2516.057283,2516.057283,
   ** Warning ** SimHVAC: Maximum iterations (20) exceeded for all HVAC loops, at ANNUAL, 03/21 20:15 - 20:30
   **   ~~~   ** The solution for one or more of the Air Loop HVAC systems did not appear to converge
   **   ~~~   ** Air System Named = CENTRAL SYSTEM did not converge for mass flow rate
   **   ~~~   ** Check values should be zero. Most Recent values listed first.
   **   ~~~   ** Demand-to-Supply interface mass flow rate check value iteration history trace: 6.822662E-002,6.822662E-002,6.822662E-002,6.822662E-002,6.822662E-002,6.822662E-002,6.822662E-002,6.822662E-002,6.822662E-002,6.822662E-002,
   **   ~~~   ** Supply-to-demand interface deck 1 mass flow rate check value iteration history trace: 6.822662E-002,6.822662E-002,6.822662E-002,6.822662E-002,6.822662E-002,6.822662E-002,6.822662E-002,6.822662E-002,6.822662E-002,6.822662E-002,
   **   ~~~   ** Air System Named = CENTRAL SYSTEM did not converge for energy
   **   ~~~   ** Check values should be zero. Most Recent values listed first.
   **   ~~~   ** Demand-to-Supply interface energy check value iteration history trace: 1352.690105,1352.690105,1352.690105,1352.690105,1352.690105,1352.690105,1352.690105,1352.690105,1352.690105,1352.690104,
   **   ~~~   ** Supply-to-demand interface deck 1 energy check value iteration history trace: 2299.467418,2299.467418,2299.467418,2299.467418,2299.467417,2299.467417,2299.467417,2299.467417,2299.467417,2299.467417,
   ** Warning ** Temperature out of range [-100. to 200.] (PsyPsatFnTemp)
   **   ~~~   **  Routine=PsyTwbFnTdbWPb, Environment=ANNUAL, at Simulation time=03/27 17:15 - 17:19
   **   ~~~   **  Input Temperature=-140.06
   ** Warning ** SimHVAC: Maximum iterations (20) exceeded for all HVAC loops, at ANNUAL, 04/02 10:45 - 10:52
   **   ~~~   ** The solution for one or more of the Air Loop HVAC systems did not appear to converge
   **   ~~~   ** Air System Named = CENTRAL SYSTEM did not converge for mass flow rate
   **   ~~~   ** Check values should be zero. Most Recent values listed first.
   **   ~~~   ** Demand-to-Supply interface mass flow rate check value iteration history trace: 5.128426E-002,5.128426E-002,5.128426E-002,5.128426E-002,5.128426E-002,5.128426E-002,5.128426E-002,5.128426E-002,5.128426E-002,5.128426E-002,
   **   ~~~   ** Supply-to-demand interface deck 1 mass flow rate check value iteration history trace: 5.128426E-002,5.128426E-002,5.128426E-002,5.128426E-002,5.128426E-002,5.128426E-002,5.128426E-002,5.128426E-002,5.128426E-002,5.128426E-002,
   **   ~~~   ** Air System Named = CENTRAL SYSTEM did not converge for energy
   **   ~~~   ** Check values should be zero. Most Recent values listed first.
   **   ~~~   ** Demand-to-Supply interface energy check value iteration history trace: 1015.837382,1015.837382,1015.837382,1015.837382,1015.837382,1015.837381,1015.837381,1015.837381,1015.837381,1015.837381,
   **   ~~~   ** Supply-to-demand interface deck 1 energy check value iteration history trace: 1881.934440,1881.934440,1881.934440,1881.934439,1881.934439,1881.934439,1881.934439,1881.934438,1881.934438,1881.934438,
   **   ~~~   ** Node named ZONE INLET NODE shows oscillating temperatures across iterations with a repeated value of 36.519244
   **   ~~~   ** Node named ZONE INLET NODE temperature [C] iteration history trace (most recent first): 36.519244,36.519243,36.519243,36.519243,36.519243,36.519242,36.519242,36.519242,36.519242,36.519241,
   ** Warning ** SimHVAC: Maximum iterations (20) exceeded for all HVAC loops, at ANNUAL, 04/06 07:00 - 07:05
   **   ~~~   ** The solution for one or more of the Air Loop HVAC systems did not appear to converge
   **   ~~~   ** Air System Named = CENTRAL SYSTEM did not converge for mass flow rate
   **   ~~~   ** Check values should be zero. Most Recent values listed first.
   **   ~~~   ** Demand-to-Supply interface mass flow rate check value iteration history trace: 6.293547E-002,6.293547E-002,6.293547E-002,6.293547E-002,6.293547E-002,6.293547E-002,6.293547E-002,6.293547E-002,6.293547E-002,6.293547E-002,
   **   ~~~   ** Supply-to-demand interface deck 1 mass flow rate check value iteration history trace: 6.293547E-002,6.293547E-002,6.293547E-002,6.293547E-002,6.293547E-002,6.293547E-002,6.293547E-002,6.293547E-002,6.293547E-002,6.293547E-002,
   **   ~~~   ** Air System Named = CENTRAL SYSTEM did not converge for energy
   **   ~~~   ** Check values should be zero. Most Recent values listed first.
   **   ~~~   ** Demand-to-Supply interface energy check value iteration history trace: 1247.142278,1247.142278,1247.142278,1247.142278,1247.142278,1247.142278,1247.142278,1247.142278,1247.142278,1247.142278,
   **   ~~~   ** Supply-to-demand interface deck 1 energy check value iteration history trace: 2195.208683,2195.208683,2195.208683,2195.208683,2195.208683,2195.208682,2195.208682,2195.208682,2195.208682,2195.208682,
   ** Warning ** SimHVAC: Maximum iterations (20) exceeded for all HVAC loops, at ANNUAL, 04/09 11:11 - 11:15
   **   ~~~   ** The solution for one or more of the Air Loop HVAC systems did not appear to converge
   **   ~~~   ** Air System Named = CENTRAL SYSTEM did not converge for mass flow rate
   **   ~~~   ** Check values should be zero. Most Recent values listed first.
   **   ~~~   ** Demand-to-Supply interface mass flow rate check value iteration history trace: 7.030119E-002,7.030119E-002,7.030119E-002,7.030119E-002,7.030119E-002,7.030119E-002,7.030119E-002,7.030119E-002,7.030119E-002,7.030119E-002,
   **   ~~~   ** Supply-to-demand interface deck 1 mass flow rate check value iteration history trace: 7.030119E-002,7.030119E-002,7.030119E-002,7.030119E-002,7.030119E-002,7.030119E-002,7.030119E-002,7.030119E-002,7.030119E-002,7.030119E-002,
   **   ~~~   ** Air System Named = CENTRAL SYSTEM did not converge for energy
   **   ~~~   ** Check values should be zero. Most Recent values listed first.
   **   ~~~   ** Demand-to-Supply interface energy check value iteration history trace: 1382.195863,1382.195863,1382.195863,1382.195863,1382.195863,1382.195863,1382.195863,1382.195863,1382.195863,1382.195863,
   **   ~~~   ** Supply-to-demand interface deck 1 energy check value iteration history trace: 2396.919443,2396.919443,2396.919443,2396.919443,2396.919443,2396.919443,2396.919443,2396.919442,2396.919442,2396.919442,
   ** Warning ** SimHVAC: Maximum iterations (20) exceeded for all HVAC loops, at ANNUAL, 04/17 06:45 - 07:00
   **   ~~~   ** The solution for one or more of the Air Loop HVAC systems did not appear to converge
   **   ~~~   ** Air System Named = CENTRAL SYSTEM did not converge for mass flow rate
   **   ~~~   ** Check values should be zero. Most Recent values listed first.
   **   ~~~   ** Demand-to-Supply interface mass flow rate check value iteration history trace: 7.898510E-002,7.898510E-002,7.898510E-002,7.898510E-002,7.898510E-002,7.898510E-002,7.898510E-002,7.898510E-002,7.898510E-002,7.898510E-002,
   **   ~~~   ** Supply-to-demand interface deck 1 mass flow rate check value iteration history trace: 7.898510E-002,7.898510E-002,7.898510E-002,7.898510E-002,7.898510E-002,7.898510E-002,7.898510E-002,7.898510E-002,7.898510E-002,7.898510E-002,
   **   ~~~   ** Air System Named = CENTRAL SYSTEM did not converge for energy
   **   ~~~   ** Check values should be zero. Most Recent values listed first.
   **   ~~~   ** Demand-to-Supply interface energy check value iteration history trace: 1564.384445,1564.384445,1564.384445,1564.384445,1564.384445,1564.384445,1564.384444,1564.384444,1564.384444,1564.384444,
   **   ~~~   ** Supply-to-demand interface deck 1 energy check value iteration history trace: 2671.268521,2671.268521,2671.268521,2671.268521,2671.268521,2671.268520,2671.268520,2671.268520,2671.268520,2671.268520,
   ************* Simulation Error Summary *************
   ** Warning ** The following Report Variables were requested but not generated -- check.rdd file
   **   ~~~   ** Either the IDF did not contain these elements, the variable name is misspelled,
   **   ~~~   ** or the requested variable is an advanced output which requires Output : Diagnostics, DisplayAdvancedReportVariables;
   ************* Key=*, VarName=BASEBOARD TOTAL HEATING ENERGY, Frequency=
   ************* Key=*, VarName=WATER HEATER NATURALGAS ENERGY, Frequency=
   ************* Key=*, VarName=COOLING COIL TOTAL HEATING ENERGY, Frequency=
   ************* There are 34 unused schedules in input.
   ************* There are 388 unused week schedules in input.
   ************* There are 396 unused day schedules in input.
   ************* Use Output:Diagnostics,DisplayUnusedSchedules; to see them.
   *************
   ************* ===== Recurring Error Summary =====
   ************* The following recurring error messages occurred.
   *************
   *************  ** Warning ** "TOTAL HOT WATER LOAD" - Target water temperature should be less than or equal to the hot water temperature error continues...
   *************  **   ~~~   **   This error occurred 111633 total times;
   *************  **   ~~~   **   during Warmup 0 times;
   *************  **   ~~~   **   during Sizing 0 times.
   *************  **   ~~~   **   Max=10.045518  Min=1.412450E-003
   *************
   *************  ** Warning ** Temperature out of range [-100. to 200.] (PsyPsatFnTemp)
   *************  **   ~~~   **   This error occurred 1 total times;
   *************  **   ~~~   **   during Warmup 0 times;
   *************  **   ~~~   **   during Sizing 0 times.
   *************  **   ~~~   **   Max=-140.060295 C  Min=-140.060295 C
   *************
   *************  ** Warning ** SimHVAC: Exceeding Maximum iterations for all HVAC loops, during ANNUAL continues
   *************  **   ~~~   **   This error occurred 9 total times;
   *************  **   ~~~   **   during Warmup 0 times;
   *************  **   ~~~   **   during Sizing 0 times.
   *************
   *************
   ************* ===== Final Error Summary =====
   ************* The following error categories occurred.  Consider correcting or noting.
   ************* Nominally Unused Constructions
   ************* ..The nominally unused constructions warning is provided to alert you to potential conditions that can cause
   ************* ..extra time during simulation. Each construction is calculated by the algorithm indicated in the HeatBalanceAlgorithm
   ************* ..object. You may remove the constructions indicated (when you use the DisplayExtraWarnings option).
   *************
   ************* EnergyPlus Warmup Error Summary. During Warmup: 1 Warning; 0 Severe Errors.
   ************* EnergyPlus Sizing Error Summary. During Sizing: 4 Warning; 0 Severe Errors.
   ************* EnergyPlus Completed Successfully-- 111675 Warning; 0 Severe Errors; Elapsed Time=00hr 01min 25.41sec
