Program Version,EnergyPlus, Version 22.2.0-c249759bad, YMD=2023.09.01 19:26,
   ************* Beginning Zone Sizing Calculations
   ** Warning ** ProcessScheduleInput: Schedule:Constant="ALWAYS ON DISCRETE", Schedule Type Limits Name="ONOFF" not found -- will not be validated
   ** Warning ** Foundation:Kiva="KIVA FOUNDATION", no Interior Horizontal Insulation Material Name defined
   **   ~~~   ** Interior Horizontal Insulation Depth will not be used.
   ** Warning ** CheckUsedConstructions: There are 15 nominally unused constructions in input.
   **   ~~~   ** Each Unused construction is shown.
   ************* Construction=INTERIOR FLOOR
   ************* Construction=INTERIOR WINDOW
   ************* Construction=EXTERIOR DOOR
   ************* Construction=INTERIOR DOOR
   ************* Construction=GABLE CONSTRUCTION
   ************* Construction=CRAWL_FLOOR
   ************* Construction=INSULATED PIPE
   ************* Construction=PLAIN PIPE
   ************* Construction=TDD PIPE
   ************* Construction=TDD DOME
   ************* Construction=TDD DIFFUSER
   ************* Construction=CRAWL WALL
   ************* Construction=CEILING-FLOOR-LAYER
   ************* Construction=SLAB CONSTRUCTION W FULL R10 INSULATION
   ************* Construction=SLAB CONSTRUCTION W FULL R5 INSULATION
   ** Warning ** GetDXCoils: Coil:Heating:DX:SingleSpeed="DX_HEATING_COIL" curve values
   **   ~~~   ** ... Defrost Energy Input Ratio Function of Temperature Curve Name = DEFROSTEIR output is not equal to 1.0 (+ or - 10%) at rated conditions.
   **   ~~~   ** ... Curve output at rated conditions = 0.152
   ************* Beginning System Sizing Calculations
   ************* Beginning Plant Sizing Calculations
   ** Warning ** SizeDXCoil Coil:Cooling:DX:SingleSpeed DX_COOLING_COIL
   **   ~~~   ** ...Gross Rated Total Cooling Capacity [W] will be limited by the maximum rated volume flow per rated total capacity ratio.
   **   ~~~   ** ...DX coil volume flow rate ( m3/s ) = 0.475537
   **   ~~~   ** ...Requested capacity ( W ) = 5970.319
   **   ~~~   ** ...Requested flow/capacity ratio ( m3/s/W ) = 7.965E-005
   **   ~~~   ** ...Maximum flow/capacity ratio ( m3/s/W ) = 6.041E-005
   **   ~~~   ** ...Adjusted capacity ( W ) = 7871.833
   ** Warning ** Coil:WaterHeating:AirToWaterHeatPump:Wrapped "HEAT PUMP WATER HEATER EVAPORATOR": Rated air volume flow rate per watt of rated total water heating capacity is out of range
   **   ~~~   ** Min Rated Vol Flow Per Watt=[4.027E-005], Rated Vol Flow Per Watt=[1.510E-004], Max Rated Vol Flow Per Watt=[8.056E-005]. See Input-Output Reference Manual for valid range.
   ************* SizeFan: : Potential issue with equipment sizing for Fan:OnOff HEAT PUMP WATER HEATER FAN
   **   ~~~   ** User-Specified Maximum Flow Rate [m3/s] = 0.22653
   **   ~~~   ** differs from Design Size Maximum Flow Rate [m3/s] = 7.55250E-002
   **   ~~~   ** This may, or may not, indicate mismatched component sizes.
   **   ~~~   ** Verify that the value entered is intended and is consistent with other components.
   ** Warning ** Water heater = WATER HEATER TANK:  Recovery Efficiency and Energy Factor could not be calculated during the test for standard ratings
   **   ~~~   ** Setpoint was never recovered and/or heater never turned on
   ** Warning ** Check input. Pump nominal power or motor efficiency is set to 0, for pump=MAINS PRESSURE
   ** Warning ** Output:Meter: invalid Key Name="ELECTRIC_RANGE:INTERIOREQUIPMENT:ELECTRICITY" - not found.
   ** Warning ** Output:Meter: invalid Key Name="ELECTRIC_DRYER:INTERIOREQUIPMENT:ELECTRICITY" - not found.
   ** Warning ** Output:Meter: invalid Key Name="HEATRECOVERY:ELECTRICITY" - not found.
   ** Warning ** Output:Meter: invalid Key Name="HEATING:NATURALGAS" - not found.
   ** Warning ** Output:Meter: invalid Key Name="WATERSYSTEMS:NATURALGAS" - not found.
   ** Warning ** Output:Meter: invalid Key Name="PROPANE:FACILITY" - not found.
   ** Warning ** Output:Meter: invalid Key Name="HEATING:PROPANE" - not found.
   ************* Testing Individual Branch Integrity
   ************* All Branches passed integrity testing
   ************* Testing Individual Supply Air Path Integrity
   ************* All Supply Air Paths passed integrity testing
   ************* Testing Individual Return Air Path Integrity
   ************* All Return Air Paths passed integrity testing
   ************* No node connection errors were found.
   ************* Beginning Simulation
   ** Warning ** AirflowNetwork::Solver::validate_distribution: Heat pump water heater is simulated along with an AirflowNetwork but is not included in the AirflowNetwork.
   ** Severe  ** CheckWarmupConvergence: Loads Initialization, Zone="LIVING" did not converge after 25 warmup days.
   **   ~~~   ** See Warmup Convergence Information in .eio file for details.
   **   ~~~   ** ...Environment(SizingPeriod)="EXTREME_WINTER"
   **   ~~~   ** ..Max Temp Comparison = 0.41 vs Temperature Convergence Tolerance=5.00E-002 - Fail Convergence
   **   ~~~   ** ..Min Temp Comparison = 3.52E-002 vs Temperature Convergence Tolerance=5.00E-002 - Pass Convergence
   **   ~~~   ** ..Max Heat Load Comparison = 2.2674E-003 vs Loads Convergence Tolerance=5.00E-002 - Pass Convergence
   **   ~~~   ** ..Max Cool Load Comparison = 3.2675E-002 vs Loads Convergence Tolerance=5.00E-002 - Pass Convergence
   ** Severe  ** CheckWarmupConvergence: Loads Initialization, Zone="ATTIC" did not converge after 25 warmup days.
   **   ~~~   ** ...Environment(SizingPeriod)="EXTREME_WINTER"
   **   ~~~   ** ..Max Temp Comparison = 0.13 vs Temperature Convergence Tolerance=5.00E-002 - Fail Convergence
   **   ~~~   ** ..Min Temp Comparison = 0.19 vs Temperature Convergence Tolerance=5.00E-002 - Fail Convergence
   **   ~~~   ** ..Max Heat Load Comparison = 0.0000 vs Loads Convergence Tolerance=5.00E-002 - Pass Convergence
   **   ~~~   ** ..Max Cool Load Comparison = 0.0000 vs Loads Convergence Tolerance=5.00E-002 - Pass Convergence
   ** Warning ** CalcEquipmentFlowRates: "TOTAL HOT WATER LOAD" - Target water temperature is greater than the hot water temperature by (1.12 C)
   **   ~~~   **  Environment=EXTREME_WINTER, at Simulation time=01/06 06:00 - 06:15
   **   ~~~   ** ...target water temperature     = 53.33 C
   **   ~~~   ** ...hot water temperature        = 52.21 C
   **   ~~~   ** ...Target water temperature should be less than or equal to the hot water temperature. Verify temperature setpoints and schedules.
   ** Warning ** SimHVAC: Maximum iterations (20) exceeded for all HVAC loops, at EXTREME_WINTER, 01/09 12:45 - 12:50
   **   ~~~   ** The solution for one or more of the Air Loop HVAC systems did not appear to converge
   **   ~~~   ** Air System Named = CENTRAL SYSTEM did not converge for mass flow rate
   **   ~~~   ** Check values should be zero. Most Recent values listed first.
   **   ~~~   ** Demand-to-Supply interface mass flow rate check value iteration history trace: 6.545407E-002,6.545407E-002,6.545407E-002,6.545407E-002,6.545407E-002,6.545407E-002,6.545407E-002,6.545407E-002,6.545407E-002,6.545407E-002,
   **   ~~~   ** Supply-to-demand interface deck 1 mass flow rate check value iteration history trace: 6.545407E-002,6.545407E-002,6.545407E-002,6.545407E-002,6.545407E-002,6.545407E-002,6.545407E-002,6.545407E-002,6.545407E-002,6.545407E-002,
   **   ~~~   ** Air System Named = CENTRAL SYSTEM did not converge for energy
   **   ~~~   ** Check values should be zero. Most Recent values listed first.
   **   ~~~   ** Demand-to-Supply interface energy check value iteration history trace: 1297.116017,1297.116017,1297.116017,1297.116017,1297.116017,1297.116017,1297.116017,1297.116016,1297.116016,1297.116016,
   **   ~~~   ** Supply-to-demand interface deck 1 energy check value iteration history trace: 2024.335389,2024.335389,2024.335389,2024.335388,2024.335388,2024.335388,2024.335388,2024.335388,2024.335388,2024.335388,
   ** Warning ** SimHVAC: Maximum iterations (20) exceeded for all HVAC loops, at EXTREME_WINTER, 01/09 17:00 - 17:15
   **   ~~~   ** The solution for one or more of the Air Loop HVAC systems did not appear to converge
   **   ~~~   ** Air System Named = CENTRAL SYSTEM did not converge for mass flow rate
   **   ~~~   ** Check values should be zero. Most Recent values listed first.
   **   ~~~   ** Demand-to-Supply interface mass flow rate check value iteration history trace: 8.301957E-002,8.301957E-002,8.301957E-002,8.301957E-002,8.301957E-002,8.301957E-002,8.301957E-002,8.301957E-002,8.301957E-002,8.301957E-002,
   **   ~~~   ** Supply-to-demand interface deck 1 mass flow rate check value iteration history trace: 8.301957E-002,8.301957E-002,8.301957E-002,8.301957E-002,8.301957E-002,8.301957E-002,8.301957E-002,8.301957E-002,8.301957E-002,8.301957E-002,
   **   ~~~   ** Air System Named = CENTRAL SYSTEM did not converge for energy
   **   ~~~   ** Check values should be zero. Most Recent values listed first.
   **   ~~~   ** Demand-to-Supply interface energy check value iteration history trace: 1644.115650,1644.115650,1644.115650,1644.115650,1644.115650,1644.115650,1644.115650,1644.115649,1644.115649,1644.115649,
   **   ~~~   ** Supply-to-demand interface deck 1 energy check value iteration history trace: 2466.955668,2466.955667,2466.955667,2466.955667,2466.955667,2466.955667,2466.955667,2466.955666,2466.955666,2466.955666,
   ** Warning ** SimHVAC: Maximum iterations (20) exceeded for all HVAC loops, at ANNUAL, 01/09 13:00 - 13:15
   **   ~~~   ** The solution for one or more of the Air Loop HVAC systems did not appear to converge
   **   ~~~   ** Air System Named = CENTRAL SYSTEM did not converge for mass flow rate
   **   ~~~   ** Check values should be zero. Most Recent values listed first.
   **   ~~~   ** Demand-to-Supply interface mass flow rate check value iteration history trace: 6.489733E-002,6.489733E-002,6.489733E-002,6.489733E-002,6.489733E-002,6.489733E-002,6.489733E-002,6.489733E-002,6.489733E-002,6.489733E-002,
   **   ~~~   ** Supply-to-demand interface deck 1 mass flow rate check value iteration history trace: 6.489733E-002,6.489733E-002,6.489733E-002,6.489733E-002,6.489733E-002,6.489733E-002,6.489733E-002,6.489733E-002,6.489733E-002,6.489733E-002,
   **   ~~~   ** Air System Named = CENTRAL SYSTEM did not converge for energy
   **   ~~~   ** Check values should be zero. Most Recent values listed first.
   **   ~~~   ** Demand-to-Supply interface energy check value iteration history trace: 1286.072876,1286.072876,1286.072876,1286.072876,1286.072876,1286.072875,1286.072875,1286.072875,1286.072875,1286.072875,
   **   ~~~   ** Supply-to-demand interface deck 1 energy check value iteration history trace: 1999.945966,1999.945966,1999.945966,1999.945965,1999.945965,1999.945965,1999.945965,1999.945965,1999.945965,1999.945965,
   ** Warning ** Temperature out of range [-100. to 200.] (PsyPsatFnTemp)
   **   ~~~   **  Routine=PsyTwbFnTdbWPb, Environment=ANNUAL, at Simulation time=01/24 02:00 - 02:15
   **   ~~~   **  Input Temperature=-469.16
   ** Warning ** SimHVAC: Maximum iterations (20) exceeded for all HVAC loops, at ANNUAL, 02/08 21:35 - 21:40
   **   ~~~   ** The solution for one or more of the Air Loop HVAC systems did not appear to converge
   **   ~~~   ** Air System Named = CENTRAL SYSTEM did not converge for mass flow rate
   **   ~~~   ** Check values should be zero. Most Recent values listed first.
   **   ~~~   ** Demand-to-Supply interface mass flow rate check value iteration history trace: 6.322715E-002,6.322715E-002,6.322715E-002,6.322715E-002,6.322715E-002,6.322715E-002,6.322715E-002,6.322715E-002,6.322715E-002,6.322715E-002,
   **   ~~~   ** Supply-to-demand interface deck 1 mass flow rate check value iteration history trace: 6.322715E-002,6.322715E-002,6.322715E-002,6.322715E-002,6.322715E-002,6.322715E-002,6.322715E-002,6.322715E-002,6.322715E-002,6.322715E-002,
   **   ~~~   ** Air System Named = CENTRAL SYSTEM did not converge for energy
   **   ~~~   ** Check values should be zero. Most Recent values listed first.
   **   ~~~   ** Demand-to-Supply interface energy check value iteration history trace: 1252.054331,1252.054331,1252.054331,1252.054331,1252.054331,1252.054331,1252.054331,1252.054331,1252.054331,1252.054330,
   **   ~~~   ** Supply-to-demand interface deck 1 energy check value iteration history trace: 2032.055347,2032.055347,2032.055347,2032.055347,2032.055347,2032.055347,2032.055347,2032.055346,2032.055346,2032.055346,
   ** Warning ** SimHVAC: Maximum iterations (20) exceeded for all HVAC loops, at ANNUAL, 02/19 11:17 - 11:19
   **   ~~~   ** The solution for one or more of the Air Loop HVAC systems did not appear to converge
   **   ~~~   ** Air System Named = CENTRAL SYSTEM did not converge for mass flow rate
   **   ~~~   ** Check values should be zero. Most Recent values listed first.
   **   ~~~   ** Demand-to-Supply interface mass flow rate check value iteration history trace: 5.187992E-002,5.187992E-002,5.187992E-002,5.187992E-002,5.187992E-002,5.187992E-002,5.187992E-002,5.187992E-002,5.187992E-002,5.187992E-002,
   **   ~~~   ** Supply-to-demand interface deck 1 mass flow rate check value iteration history trace: 5.187992E-002,5.187992E-002,5.187992E-002,5.187992E-002,5.187992E-002,5.187992E-002,5.187992E-002,5.187992E-002,5.187992E-002,5.187992E-002,
   **   ~~~   ** Air System Named = CENTRAL SYSTEM did not converge for energy
   **   ~~~   ** Check values should be zero. Most Recent values listed first.
   **   ~~~   ** Demand-to-Supply interface energy check value iteration history trace: 1026.349801,1026.349801,1026.349801,1026.349801,1026.349801,1026.349801,1026.349801,1026.349801,1026.349801,1026.349801,
   **   ~~~   ** Supply-to-demand interface deck 1 energy check value iteration history trace: 1962.646773,1962.646773,1962.646773,1962.646773,1962.646772,1962.646772,1962.646772,1962.646772,1962.646772,1962.646772,
   ** Warning ** WetBulb not converged after 101 iterations(PsyTwbFnTdbWPb)
   **   ~~~   **  Routine=Unknown, Environment=ANNUAL, at Simulation time=03/20 19:08 - 19:11
   **   ~~~   **  Input Temperature = 4.85
   **   ~~~   **  Input Humidity Ratio= 2.689193E-003
   **   ~~~   **  Input Pressure = 82251.75
   **   ~~~   **  Resultant Temperature= 0.37
   ** Warning ** SimHVAC: Maximum iterations (20) exceeded for all HVAC loops, at ANNUAL, 04/08 09:10 - 09:12
   **   ~~~   ** The solution for one or more of the Air Loop HVAC systems did not appear to converge
   **   ~~~   ** Air System Named = CENTRAL SYSTEM did not converge for mass flow rate
   **   ~~~   ** Check values should be zero. Most Recent values listed first.
   **   ~~~   ** Demand-to-Supply interface mass flow rate check value iteration history trace: 5.950454E-002,5.950454E-002,5.950454E-002,5.950454E-002,5.950454E-002,5.950454E-002,5.950454E-002,5.950454E-002,5.950454E-002,5.950454E-002,
   **   ~~~   ** Supply-to-demand interface deck 1 mass flow rate check value iteration history trace: 5.950454E-002,5.950454E-002,5.950454E-002,5.950454E-002,5.950454E-002,5.950454E-002,5.950454E-002,5.950454E-002,5.950454E-002,5.950454E-002,
   **   ~~~   ** Air System Named = CENTRAL SYSTEM did not converge for energy
   **   ~~~   ** Check values should be zero. Most Recent values listed first.
   **   ~~~   ** Demand-to-Supply interface energy check value iteration history trace: 1175.954791,1175.954791,1175.954791,1175.954791,1175.954791,1175.954791,1175.954791,1175.954791,1175.954791,1175.954791,
   **   ~~~   ** Supply-to-demand interface deck 1 energy check value iteration history trace: 2217.289630,2217.289630,2217.289630,2217.289630,2217.289630,2217.289630,2217.289630,2217.289629,2217.289629,2217.289629,
   ** Warning ** SimHVAC: Maximum iterations (20) exceeded for all HVAC loops, at ANNUAL, 04/11 07:58 - 08:00
   **   ~~~   ** The solution for one or more of the Air Loop HVAC systems did not appear to converge
   **   ~~~   ** Air System Named = CENTRAL SYSTEM did not converge for mass flow rate
   **   ~~~   ** Check values should be zero. Most Recent values listed first.
   **   ~~~   ** Demand-to-Supply interface mass flow rate check value iteration history trace: 5.587208E-002,5.587208E-002,5.587208E-002,5.587208E-002,5.587208E-002,5.587208E-002,5.587208E-002,5.587208E-002,5.587208E-002,5.587208E-002,
   **   ~~~   ** Supply-to-demand interface deck 1 mass flow rate check value iteration history trace: 5.587208E-002,5.587208E-002,5.587208E-002,5.587208E-002,5.587208E-002,5.587208E-002,5.587208E-002,5.587208E-002,5.587208E-002,5.587208E-002,
   **   ~~~   ** Air System Named = CENTRAL SYSTEM did not converge for energy
   **   ~~~   ** Check values should be zero. Most Recent values listed first.
   **   ~~~   ** Demand-to-Supply interface energy check value iteration history trace: 1106.179974,1106.179974,1106.179974,1106.179974,1106.179974,1106.179974,1106.179974,1106.179974,1106.179974,1106.179974,
   **   ~~~   ** Supply-to-demand interface deck 1 energy check value iteration history trace: 2096.495179,2096.495179,2096.495178,2096.495178,2096.495178,2096.495178,2096.495178,2096.495178,2096.495178,2096.495178,
   ** Warning ** SimHVAC: Maximum iterations (20) exceeded for all HVAC loops, at ANNUAL, 04/11 08:57 - 08:58
   **   ~~~   ** The solution for one or more of the Air Loop HVAC systems did not appear to converge
   **   ~~~   ** Air System Named = CENTRAL SYSTEM did not converge for mass flow rate
   **   ~~~   ** Check values should be zero. Most Recent values listed first.
   **   ~~~   ** Demand-to-Supply interface mass flow rate check value iteration history trace: 4.892779E-002,4.892779E-002,4.892779E-002,4.892779E-002,4.892779E-002,4.892779E-002,4.892779E-002,4.892779E-002,4.892779E-002,4.892779E-002,
   **   ~~~   ** Supply-to-demand interface deck 1 mass flow rate check value iteration history trace: 4.892779E-002,4.892779E-002,4.892779E-002,4.892779E-002,4.892779E-002,4.892779E-002,4.892779E-002,4.892779E-002,4.892779E-002,4.892779E-002,
   **   ~~~   ** Air System Named = CENTRAL SYSTEM did not converge for energy
   **   ~~~   ** Check values should be zero. Most Recent values listed first.
   **   ~~~   ** Demand-to-Supply interface energy check value iteration history trace: 965.395689,965.395689,965.395689,965.395689,965.395689,965.395689,965.395689,965.395689,965.395689,965.395689,
   **   ~~~   ** Supply-to-demand interface deck 1 energy check value iteration history trace: 1891.868448,1891.868448,1891.868448,1891.868448,1891.868448,1891.868448,1891.868448,1891.868448,1891.868448,1891.868448,
   ** Warning ** SimHVAC: Maximum iterations (20) exceeded for all HVAC loops, at ANNUAL, 04/25 08:08 - 08:09
   **   ~~~   ** The solution for one or more of the Air Loop HVAC systems did not appear to converge
   **   ~~~   ** Air System Named = CENTRAL SYSTEM did not converge for mass flow rate
   **   ~~~   ** Check values should be zero. Most Recent values listed first.
   **   ~~~   ** Demand-to-Supply interface mass flow rate check value iteration history trace: 5.166084E-002,5.166084E-002,5.166084E-002,5.166084E-002,5.166084E-002,5.166084E-002,5.166084E-002,5.166084E-002,5.166084E-002,5.166084E-002,
   **   ~~~   ** Supply-to-demand interface deck 1 mass flow rate check value iteration history trace: 5.166084E-002,5.166084E-002,5.166084E-002,5.166084E-002,5.166084E-002,5.166084E-002,5.166084E-002,5.166084E-002,5.166084E-002,5.166084E-002,
   **   ~~~   ** Air System Named = CENTRAL SYSTEM did not converge for energy
   **   ~~~   ** Check values should be zero. Most Recent values listed first.
   **   ~~~   ** Demand-to-Supply interface energy check value iteration history trace: 1019.780897,1019.780897,1019.780897,1019.780897,1019.780897,1019.780897,1019.780897,1019.780897,1019.780897,1019.780897,
   **   ~~~   ** Supply-to-demand interface deck 1 energy check value iteration history trace: 2018.116074,2018.116074,2018.116074,2018.116074,2018.116073,2018.116073,2018.116073,2018.116073,2018.116073,2018.116073,
   ** Warning ** SimHVAC: Maximum iterations (20) exceeded for all HVAC loops, at ANNUAL, 05/25 05:45 - 06:00
   **   ~~~   ** The solution for one or more of the Air Loop HVAC systems did not appear to converge
   **   ~~~   ** Air System Named = CENTRAL SYSTEM did not converge for mass flow rate
   **   ~~~   ** Check values should be zero. Most Recent values listed first.
   **   ~~~   ** Demand-to-Supply interface mass flow rate check value iteration history trace: 7.887757E-002,7.887757E-002,7.887757E-002,7.887757E-002,7.887757E-002,7.887757E-002,7.887757E-002,7.887757E-002,7.887757E-002,7.887757E-002,
   **   ~~~   ** Supply-to-demand interface deck 1 mass flow rate check value iteration history trace: 7.887757E-002,7.887757E-002,7.887757E-002,7.887757E-002,7.887757E-002,7.887757E-002,7.887757E-002,7.887757E-002,7.887757E-002,7.887757E-002,
   **   ~~~   ** Air System Named = CENTRAL SYSTEM did not converge for energy
   **   ~~~   ** Check values should be zero. Most Recent values listed first.
   **   ~~~   ** Demand-to-Supply interface energy check value iteration history trace: 1849.922917,1849.922917,1849.922917,1849.922917,1849.922917,1849.922917,1849.922918,1849.922918,1849.922918,1849.922918,
   **   ~~~   ** Supply-to-demand interface deck 1 energy check value iteration history trace: 838.403746,838.403746,838.403746,838.403746,838.403746,838.403746,838.403746,838.403746,838.403746,838.403746,
   ** Warning ** SimHVAC: Maximum iterations (20) exceeded for all HVAC loops, at ANNUAL, 05/26 00:45 - 01:00
   **   ~~~   ** The solution for one or more of the Air Loop HVAC systems did not appear to converge
   **   ~~~   ** Air System Named = CENTRAL SYSTEM did not converge for mass flow rate
   **   ~~~   ** Check values should be zero. Most Recent values listed first.
   **   ~~~   ** Demand-to-Supply interface mass flow rate check value iteration history trace: 3.733427E-002,3.733427E-002,3.733427E-002,3.733427E-002,3.733427E-002,3.733427E-002,3.733427E-002,3.733427E-002,3.733427E-002,3.733427E-002,
   **   ~~~   ** Supply-to-demand interface deck 1 mass flow rate check value iteration history trace: 3.733427E-002,3.733427E-002,3.733427E-002,3.733427E-002,3.733427E-002,3.733427E-002,3.733427E-002,3.733427E-002,3.733427E-002,3.733427E-002,
   **   ~~~   ** Air System Named = CENTRAL SYSTEM did not converge for energy
   **   ~~~   ** Check values should be zero. Most Recent values listed first.
   **   ~~~   ** Demand-to-Supply interface energy check value iteration history trace: 920.860240,920.860240,920.860240,920.860240,920.860240,920.860240,920.860240,920.860240,920.860240,920.860240,
   **   ~~~   ** Supply-to-demand interface deck 1 energy check value iteration history trace: 316.222474,316.222474,316.222474,316.222474,316.222474,316.222474,316.222474,316.222474,316.222474,316.222474,
   ** Warning ** SimHVAC: Maximum iterations (20) exceeded for all HVAC loops, at ANNUAL, 10/09 12:00 - 12:15
   **   ~~~   ** The solution for one or more of the Air Loop HVAC systems did not appear to converge
   **   ~~~   ** Air System Named = CENTRAL SYSTEM did not converge for mass flow rate
   **   ~~~   ** Check values should be zero. Most Recent values listed first.
   **   ~~~   ** Demand-to-Supply interface mass flow rate check value iteration history trace: 5.057822E-002,5.057822E-002,5.057822E-002,5.057822E-002,5.057822E-002,5.057822E-002,5.057822E-002,5.057822E-002,5.057822E-002,5.057822E-002,
   **   ~~~   ** Supply-to-demand interface deck 1 mass flow rate check value iteration history trace: 5.057822E-002,5.057822E-002,5.057822E-002,5.057822E-002,5.057822E-002,5.057822E-002,5.057822E-002,5.057822E-002,5.057822E-002,5.057822E-002,
   **   ~~~   ** Air System Named = CENTRAL SYSTEM did not converge for energy
   **   ~~~   ** Check values should be zero. Most Recent values listed first.
   **   ~~~   ** Demand-to-Supply interface energy check value iteration history trace: 1197.814496,1197.814496,1197.814496,1197.814496,1197.814496,1197.814496,1197.814496,1197.814496,1197.814496,1197.814496,
   **   ~~~   ** Supply-to-demand interface deck 1 energy check value iteration history trace: 409.708107,409.708107,409.708107,409.708107,409.708107,409.708107,409.708107,409.708107,409.708107,409.708107,
   ** Warning ** SimHVAC: Maximum iterations (20) exceeded for all HVAC loops, at ANNUAL, 10/13 07:00 - 07:15
   **   ~~~   ** The solution for one or more of the Air Loop HVAC systems did not appear to converge
   **   ~~~   ** Air System Named = CENTRAL SYSTEM did not converge for mass flow rate
   **   ~~~   ** Check values should be zero. Most Recent values listed first.
   **   ~~~   ** Demand-to-Supply interface mass flow rate check value iteration history trace: 5.191205E-002,5.191205E-002,5.191205E-002,5.191205E-002,5.191205E-002,5.191205E-002,5.191205E-002,5.191205E-002,5.191205E-002,5.191205E-002,
   **   ~~~   ** Supply-to-demand interface deck 1 mass flow rate check value iteration history trace: 5.191205E-002,5.191205E-002,5.191205E-002,5.191205E-002,5.191205E-002,5.191205E-002,5.191205E-002,5.191205E-002,5.191205E-002,5.191205E-002,
   **   ~~~   ** Air System Named = CENTRAL SYSTEM did not converge for energy
   **   ~~~   ** Check values should be zero. Most Recent values listed first.
   **   ~~~   ** Demand-to-Supply interface energy check value iteration history trace: 1028.603532,1028.603532,1028.603532,1028.603532,1028.603532,1028.603532,1028.603532,1028.603532,1028.603532,1028.603532,
   **   ~~~   ** Supply-to-demand interface deck 1 energy check value iteration history trace: 1931.404703,1931.404703,1931.404703,1931.404703,1931.404703,1931.404703,1931.404703,1931.404703,1931.404702,1931.404702,
   ** Warning ** SimHVAC: Maximum iterations (20) exceeded for all HVAC loops, at ANNUAL, 10/28 00:30 - 00:38
   **   ~~~   ** The solution for one or more of the Air Loop HVAC systems did not appear to converge
   **   ~~~   ** Air System Named = CENTRAL SYSTEM did not converge for mass flow rate
   **   ~~~   ** Check values should be zero. Most Recent values listed first.
   **   ~~~   ** Demand-to-Supply interface mass flow rate check value iteration history trace: 7.325272E-002,7.325272E-002,7.325272E-002,7.325272E-002,7.325272E-002,7.325272E-002,7.325272E-002,7.325272E-002,7.325272E-002,7.325272E-002,
   **   ~~~   ** Supply-to-demand interface deck 1 mass flow rate check value iteration history trace: 7.325272E-002,7.325272E-002,7.325272E-002,7.325272E-002,7.325272E-002,7.325272E-002,7.325272E-002,7.325272E-002,7.325272E-002,7.325272E-002,
   **   ~~~   ** Air System Named = CENTRAL SYSTEM did not converge for energy
   **   ~~~   ** Check values should be zero. Most Recent values listed first.
   **   ~~~   ** Demand-to-Supply interface energy check value iteration history trace: 1361.623709,1361.623709,1361.623709,1361.623709,1361.623709,1361.623709,1361.623709,1361.623708,1361.623708,1361.623708,
   **   ~~~   ** Supply-to-demand interface deck 1 energy check value iteration history trace: 2155.611009,2155.611009,2155.611008,2155.611008,2155.611008,2155.611008,2155.611008,2155.611008,2155.611008,2155.611008,
   ************* Simulation Error Summary *************
   ** Warning ** The following Report Variables were requested but not generated -- check.rdd file
   **   ~~~   ** Either the IDF did not contain these elements, the variable name is misspelled,
   **   ~~~   ** or the requested variable is an advanced output which requires Output : Diagnostics, DisplayAdvancedReportVariables;
   ************* Key=*, VarName=BASEBOARD TOTAL HEATING ENERGY, Frequency=
   ************* Key=*, VarName=WATER HEATER NATURALGAS ENERGY, Frequency=
   ************* Key=*, VarName=COOLING COIL TOTAL HEATING ENERGY, Frequency=
   ************* There are 34 unused schedules in input.
   ************* There are 388 unused week schedules in input.
   ************* There are 396 unused day schedules in input.
   ************* Use Output:Diagnostics,DisplayUnusedSchedules; to see them.
   *************
   ************* ===== Recurring Error Summary =====
   ************* The following recurring error messages occurred.
   *************
   *************  ** Warning ** "TOTAL HOT WATER LOAD" - Target water temperature should be less than or equal to the hot water temperature error continues...
   *************  **   ~~~   **   This error occurred 160439 total times;
   *************  **   ~~~   **   during Warmup 0 times;
   *************  **   ~~~   **   during Sizing 0 times.
   *************  **   ~~~   **   Max=10.166026  Min=2.287500E-003
   *************
   *************  ** Warning ** Temperature out of range [-100. to 200.] (PsyPsatFnTemp)
   *************  **   ~~~   **   This error occurred 4 total times;
   *************  **   ~~~   **   during Warmup 0 times;
   *************  **   ~~~   **   during Sizing 0 times.
   *************  **   ~~~   **   Max=-120.63657 C  Min=-469.161362 C
   *************
   *************  ** Warning ** WetBulb not converged after max iterations(PsyTwbFnTdbWPb)
   *************  **   ~~~   **   This error occurred 3 total times;
   *************  **   ~~~   **   during Warmup 0 times;
   *************  **   ~~~   **   during Sizing 0 times.
   *************
   *************  ** Warning ** SimHVAC: Exceeding Maximum iterations for all HVAC loops, during ANNUAL continues
   *************  **   ~~~   **   This error occurred 7 total times;
   *************  **   ~~~   **   during Warmup 0 times;
   *************  **   ~~~   **   during Sizing 0 times.
   *************
   *************
   ************* ===== Final Error Summary =====
   ************* The following error categories occurred.  Consider correcting or noting.
   ************* Loads Initialization did not Converge
   ************* ..1) very high thermal mass such as very thick concrete (solution: increase max number of warmup
   ************* ..   days in the BUILDING object);
   ************* ..2) moderate mass and inadequate space conditioning such that the building keeps getting warmer
   ************* ..   and warmer on successive days (solution: add HVAC, check building thermal properties,
   ************* ..   check if infiltration is included, make sure HVAC properly controlled);
   ************* ..3) a soil layer modeled below the concrete slab - (solution remove this layer and read about
   ************* ..   ground temperatures in the Auxiliary Programs document).
   ************* ..4) unreasonable (too small) limits in the BUILDING object for temperature (.4 default) or
   ************* ..   loads tolerances (.04 default)
   ************* Nominally Unused Constructions
   ************* ..The nominally unused constructions warning is provided to alert you to potential conditions that can cause
   ************* ..extra time during simulation. Each construction is calculated by the algorithm indicated in the HeatBalanceAlgorithm
   ************* ..object. You may remove the constructions indicated (when you use the DisplayExtraWarnings option).
   *************
   ************* EnergyPlus Warmup Error Summary. During Warmup: 1 Warning; 2 Severe Errors.
   ************* EnergyPlus Sizing Error Summary. During Sizing: 4 Warning; 0 Severe Errors.
   ************* EnergyPlus Completed Successfully-- 160485 Warning; 2 Severe Errors; Elapsed Time=00hr 01min 52.92sec
