Program Version,EnergyPlus, Version 22.2.0-c249759bad, YMD=2023.09.01 15:08,
   ************* Beginning Zone Sizing Calculations
   ** Warning ** ProcessScheduleInput: Schedule:Constant="ALWAYS ON DISCRETE", Schedule Type Limits Name="ONOFF" not found -- will not be validated
   ** Warning ** Foundation:Kiva="KIVA FOUNDATION", no Interior Horizontal Insulation Material Name defined
   **   ~~~   ** Interior Horizontal Insulation Depth will not be used.
   ** Warning ** CheckUsedConstructions: There are 15 nominally unused constructions in input.
   **   ~~~   ** Each Unused construction is shown.
   ************* Construction=INTERIOR FLOOR
   ************* Construction=INTERIOR WINDOW
   ************* Construction=EXTERIOR DOOR
   ************* Construction=INTERIOR DOOR
   ************* Construction=GABLE CONSTRUCTION
   ************* Construction=CRAWL_FLOOR
   ************* Construction=INSULATED PIPE
   ************* Construction=PLAIN PIPE
   ************* Construction=TDD PIPE
   ************* Construction=TDD DOME
   ************* Construction=TDD DIFFUSER
   ************* Construction=CRAWL WALL
   ************* Construction=CEILING-FLOOR-LAYER
   ************* Construction=SLAB CONSTRUCTION W FULL R10 INSULATION
   ************* Construction=SLAB CONSTRUCTION W FULL R5 INSULATION
   ** Warning ** GetDXCoils: Coil:Heating:DX:SingleSpeed="DX_HEATING_COIL" curve values
   **   ~~~   ** ... Defrost Energy Input Ratio Function of Temperature Curve Name = DEFROSTEIR output is not equal to 1.0 (+ or - 10%) at rated conditions.
   **   ~~~   ** ... Curve output at rated conditions = 0.152
   ************* Beginning System Sizing Calculations
   ************* Beginning Plant Sizing Calculations
   ** Warning ** Coil:WaterHeating:AirToWaterHeatPump:Wrapped "HEAT PUMP WATER HEATER EVAPORATOR": Rated air volume flow rate per watt of rated total water heating capacity is out of range
   **   ~~~   ** Min Rated Vol Flow Per Watt=[4.027E-005], Rated Vol Flow Per Watt=[1.386E-004], Max Rated Vol Flow Per Watt=[8.056E-005]. See Input-Output Reference Manual for valid range.
   ** Warning ** Water heater = WATER HEATER TANK:  Recovery Efficiency and Energy Factor could not be calculated during the test for standard ratings
   **   ~~~   ** Setpoint was never recovered and/or heater never turned on
   ** Warning ** Check input. Pump nominal power or motor efficiency is set to 0, for pump=MAINS PRESSURE
   ** Warning ** Output:Meter: invalid Key Name="ELECTRIC_RANGE:INTERIOREQUIPMENT:ELECTRICITY" - not found.
   ** Warning ** Output:Meter: invalid Key Name="ELECTRIC_DRYER:INTERIOREQUIPMENT:ELECTRICITY" - not found.
   ** Warning ** Output:Meter: invalid Key Name="HEATRECOVERY:ELECTRICITY" - not found.
   ** Warning ** Output:Meter: invalid Key Name="HEATING:NATURALGAS" - not found.
   ** Warning ** Output:Meter: invalid Key Name="WATERSYSTEMS:NATURALGAS" - not found.
   ** Warning ** Output:Meter: invalid Key Name="PROPANE:FACILITY" - not found.
   ** Warning ** Output:Meter: invalid Key Name="HEATING:PROPANE" - not found.
   ************* Testing Individual Branch Integrity
   ************* All Branches passed integrity testing
   ************* Testing Individual Supply Air Path Integrity
   ************* All Supply Air Paths passed integrity testing
   ************* Testing Individual Return Air Path Integrity
   ************* All Return Air Paths passed integrity testing
   ************* No node connection errors were found.
   ************* Beginning Simulation
   ** Warning ** AirflowNetwork::Solver::validate_distribution: Heat pump water heater is simulated along with an AirflowNetwork but is not included in the AirflowNetwork.
   ** Warning ** CalcEquipmentFlowRates: "TOTAL HOT WATER LOAD" - Target water temperature is greater than the hot water temperature by (1.64 C)
   **   ~~~   **  Environment=EXTREME_WINTER, at Simulation time=01/06 06:00 - 06:15
   **   ~~~   ** ...target water temperature     = 53.33 C
   **   ~~~   ** ...hot water temperature        = 51.70 C
   **   ~~~   ** ...Target water temperature should be less than or equal to the hot water temperature. Verify temperature setpoints and schedules.
   ** Warning ** SimHVAC: Maximum iterations (20) exceeded for all HVAC loops, at EXTREME_WINTER, 01/10 15:15 - 15:30
   **   ~~~   ** The solution for one or more of the Air Loop HVAC systems did not appear to converge
   **   ~~~   ** Air System Named = CENTRAL SYSTEM did not converge for mass flow rate
   **   ~~~   ** Check values should be zero. Most Recent values listed first.
   **   ~~~   ** Demand-to-Supply interface mass flow rate check value iteration history trace: 0.105946,0.105946,0.105946,0.105946,0.105946,0.105946,0.105946,0.105946,0.105946,0.105946,
   **   ~~~   ** Supply-to-demand interface deck 1 mass flow rate check value iteration history trace: 0.105946,0.105946,0.105946,0.105946,0.105946,0.105946,0.105946,0.105946,0.105946,0.105946,
   **   ~~~   ** Air System Named = CENTRAL SYSTEM did not converge for energy
   **   ~~~   ** Check values should be zero. Most Recent values listed first.
   **   ~~~   ** Demand-to-Supply interface energy check value iteration history trace: 2103.790224,2103.790224,2103.790224,2103.790224,2103.790224,2103.790223,2103.790223,2103.790223,2103.790223,2103.790223,
   **   ~~~   ** Supply-to-demand interface deck 1 energy check value iteration history trace: 3096.260035,3096.260035,3096.260035,3096.260035,3096.260034,3096.260034,3096.260034,3096.260034,3096.260034,3096.260033,
   ** Warning ** SimHVAC: Maximum iterations (20) exceeded for all HVAC loops, at ANNUAL, 01/02 19:15 - 19:30
   **   ~~~   ** The solution for one or more of the Air Loop HVAC systems did not appear to converge
   **   ~~~   ** Air System Named = CENTRAL SYSTEM did not converge for mass flow rate
   **   ~~~   ** Check values should be zero. Most Recent values listed first.
   **   ~~~   ** Demand-to-Supply interface mass flow rate check value iteration history trace: 8.813683E-002,8.813683E-002,8.813683E-002,8.813683E-002,8.813683E-002,8.813683E-002,8.813683E-002,8.813683E-002,8.813683E-002,8.813683E-002,
   **   ~~~   ** Supply-to-demand interface deck 1 mass flow rate check value iteration history trace: 8.813683E-002,8.813683E-002,8.813683E-002,8.813683E-002,8.813683E-002,8.813683E-002,8.813683E-002,8.813683E-002,8.813683E-002,8.813683E-002,
   **   ~~~   ** Air System Named = CENTRAL SYSTEM did not converge for energy
   **   ~~~   ** Check values should be zero. Most Recent values listed first.
   **   ~~~   ** Demand-to-Supply interface energy check value iteration history trace: 1741.533335,1741.533335,1741.533335,1741.533335,1741.533335,1741.533335,1741.533334,1741.533334,1741.533334,1741.533334,
   **   ~~~   ** Supply-to-demand interface deck 1 energy check value iteration history trace: 2790.123234,2790.123234,2790.123234,2790.123234,2790.123234,2790.123233,2790.123233,2790.123233,2790.123233,2790.123233,
   ** Warning ** SimHVAC: Maximum iterations (20) exceeded for all HVAC loops, at ANNUAL, 03/15 20:15 - 20:30
   **   ~~~   ** The solution for one or more of the Air Loop HVAC systems did not appear to converge
   **   ~~~   ** Air System Named = CENTRAL SYSTEM did not converge for mass flow rate
   **   ~~~   ** Check values should be zero. Most Recent values listed first.
   **   ~~~   ** Demand-to-Supply interface mass flow rate check value iteration history trace: 9.009484E-002,9.009484E-002,9.009484E-002,9.009484E-002,9.009484E-002,9.009484E-002,9.009484E-002,9.009484E-002,9.009484E-002,9.009484E-002,
   **   ~~~   ** Supply-to-demand interface deck 1 mass flow rate check value iteration history trace: 9.009484E-002,9.009484E-002,9.009484E-002,9.009484E-002,9.009484E-002,9.009484E-002,9.009484E-002,9.009484E-002,9.009484E-002,9.009484E-002,
   **   ~~~   ** Air System Named = CENTRAL SYSTEM did not converge for energy
   **   ~~~   ** Check values should be zero. Most Recent values listed first.
   **   ~~~   ** Demand-to-Supply interface energy check value iteration history trace: 1780.530222,1780.530222,1780.530222,1780.530222,1780.530222,1780.530222,1780.530222,1780.530222,1780.530222,1780.530222,
   **   ~~~   ** Supply-to-demand interface deck 1 energy check value iteration history trace: 3048.338111,3048.338111,3048.338111,3048.338111,3048.338111,3048.338111,3048.338111,3048.338111,3048.338110,3048.338110,
   ** Warning ** SimHVAC: Maximum iterations (20) exceeded for all HVAC loops, at ANNUAL, 03/18 10:00 - 10:15
   **   ~~~   ** The solution for one or more of the Air Loop HVAC systems did not appear to converge
   **   ~~~   ** Air System Named = CENTRAL SYSTEM did not converge for mass flow rate
   **   ~~~   ** Check values should be zero. Most Recent values listed first.
   **   ~~~   ** Demand-to-Supply interface mass flow rate check value iteration history trace: 7.997439E-002,7.997439E-002,7.997439E-002,7.997439E-002,7.997439E-002,7.997439E-002,7.997439E-002,7.997439E-002,7.997439E-002,7.997439E-002,
   **   ~~~   ** Supply-to-demand interface deck 1 mass flow rate check value iteration history trace: 7.997439E-002,7.997439E-002,7.997439E-002,7.997439E-002,7.997439E-002,7.997439E-002,7.997439E-002,7.997439E-002,7.997439E-002,7.997439E-002,
   **   ~~~   ** Air System Named = CENTRAL SYSTEM did not converge for energy
   **   ~~~   ** Check values should be zero. Most Recent values listed first.
   **   ~~~   ** Demand-to-Supply interface energy check value iteration history trace: 1584.776970,1584.776970,1584.776970,1584.776970,1584.776970,1584.776970,1584.776969,1584.776969,1584.776969,1584.776969,
   **   ~~~   ** Supply-to-demand interface deck 1 energy check value iteration history trace: 2773.760263,2773.760263,2773.760263,2773.760263,2773.760263,2773.760262,2773.760262,2773.760262,2773.760262,2773.760262,
   ** Warning ** SimHVAC: Maximum iterations (20) exceeded for all HVAC loops, at ANNUAL, 04/15 09:11 - 09:15
   **   ~~~   ** The solution for one or more of the Air Loop HVAC systems did not appear to converge
   **   ~~~   ** Air System Named = CENTRAL SYSTEM did not converge for mass flow rate
   **   ~~~   ** Check values should be zero. Most Recent values listed first.
   **   ~~~   ** Demand-to-Supply interface mass flow rate check value iteration history trace: 6.396086E-002,6.396086E-002,6.396086E-002,6.396086E-002,6.396086E-002,6.396086E-002,6.396086E-002,6.396086E-002,6.396086E-002,6.396086E-002,
   **   ~~~   ** Supply-to-demand interface deck 1 mass flow rate check value iteration history trace: 6.396086E-002,6.396086E-002,6.396086E-002,6.396086E-002,6.396086E-002,6.396086E-002,6.396086E-002,6.396086E-002,6.396086E-002,6.396086E-002,
   **   ~~~   ** Air System Named = CENTRAL SYSTEM did not converge for energy
   **   ~~~   ** Check values should be zero. Most Recent values listed first.
   **   ~~~   ** Demand-to-Supply interface energy check value iteration history trace: 1256.178646,1256.178646,1256.178646,1256.178646,1256.178646,1256.178645,1256.178645,1256.178645,1256.178645,1256.178645,
   **   ~~~   ** Supply-to-demand interface deck 1 energy check value iteration history trace: 2306.004142,2306.004142,2306.004142,2306.004142,2306.004142,2306.004142,2306.004142,2306.004142,2306.004142,2306.004142,
   ** Warning ** SimHVAC: Maximum iterations (20) exceeded for all HVAC loops, at ANNUAL, 10/23 14:00 - 14:15
   **   ~~~   ** The solution for one or more of the Air Loop HVAC systems did not appear to converge
   **   ~~~   ** Air System Named = CENTRAL SYSTEM did not converge for mass flow rate
   **   ~~~   ** Check values should be zero. Most Recent values listed first.
   **   ~~~   ** Demand-to-Supply interface mass flow rate check value iteration history trace: 0.151817,0.151817,0.151817,0.151817,0.151817,0.151817,0.151817,0.151817,0.151817,0.151817,
   **   ~~~   ** Supply-to-demand interface deck 1 mass flow rate check value iteration history trace: 0.151817,0.151817,0.151817,0.151817,0.151817,0.151817,0.151817,0.151817,0.151817,0.151817,
   **   ~~~   ** Air System Named = CENTRAL SYSTEM did not converge for energy
   **   ~~~   ** Check values should be zero. Most Recent values listed first.
   **   ~~~   ** Demand-to-Supply interface energy check value iteration history trace: 3644.726474,3644.726474,3644.726475,3644.726475,3644.726475,3644.726475,3644.726476,3644.726476,3644.726476,3644.726476,
   **   ~~~   ** Supply-to-demand interface deck 1 energy check value iteration history trace: 1543.769250,1543.769250,1543.769250,1543.769250,1543.769250,1543.769250,1543.769250,1543.769250,1543.769250,1543.769250,
   ** Warning ** SimHVAC: Maximum iterations (20) exceeded for all HVAC loops, at ANNUAL, 11/06 07:35 - 07:40
   **   ~~~   ** The solution for one or more of the Air Loop HVAC systems did not appear to converge
   **   ~~~   ** Air System Named = CENTRAL SYSTEM did not converge for mass flow rate
   **   ~~~   ** Check values should be zero. Most Recent values listed first.
   **   ~~~   ** Demand-to-Supply interface mass flow rate check value iteration history trace: 7.765644E-002,7.765644E-002,7.765644E-002,7.765644E-002,7.765644E-002,7.765644E-002,7.765644E-002,7.765644E-002,7.765644E-002,7.765644E-002,
   **   ~~~   ** Supply-to-demand interface deck 1 mass flow rate check value iteration history trace: 7.765644E-002,7.765644E-002,7.765644E-002,7.765644E-002,7.765644E-002,7.765644E-002,7.765644E-002,7.765644E-002,7.765644E-002,7.765644E-002,
   **   ~~~   ** Air System Named = CENTRAL SYSTEM did not converge for energy
   **   ~~~   ** Check values should be zero. Most Recent values listed first.
   **   ~~~   ** Demand-to-Supply interface energy check value iteration history trace: 1538.757780,1538.757780,1538.757780,1538.757780,1538.757780,1538.757780,1538.757780,1538.757780,1538.757780,1538.757780,
   **   ~~~   ** Supply-to-demand interface deck 1 energy check value iteration history trace: 2628.974426,2628.974426,2628.974425,2628.974425,2628.974425,2628.974425,2628.974425,2628.974425,2628.974425,2628.974425,
   ** Warning ** SimHVAC: Maximum iterations (20) exceeded for all HVAC loops, at ANNUAL, 11/11 08:15 - 08:30
   **   ~~~   ** The solution for one or more of the Air Loop HVAC systems did not appear to converge
   **   ~~~   ** Air System Named = CENTRAL SYSTEM did not converge for mass flow rate
   **   ~~~   ** Check values should be zero. Most Recent values listed first.
   **   ~~~   ** Demand-to-Supply interface mass flow rate check value iteration history trace: 7.573469E-002,7.573469E-002,7.573469E-002,7.573469E-002,7.573469E-002,7.573469E-002,7.573469E-002,7.573469E-002,7.573469E-002,7.573469E-002,
   **   ~~~   ** Supply-to-demand interface deck 1 mass flow rate check value iteration history trace: 7.573469E-002,7.573469E-002,7.573469E-002,7.573469E-002,7.573469E-002,7.573469E-002,7.573469E-002,7.573469E-002,7.573469E-002,7.573469E-002,
   **   ~~~   ** Air System Named = CENTRAL SYSTEM did not converge for energy
   **   ~~~   ** Check values should be zero. Most Recent values listed first.
   **   ~~~   ** Demand-to-Supply interface energy check value iteration history trace: 1500.695227,1500.695227,1500.695227,1500.695227,1500.695227,1500.695227,1500.695227,1500.695227,1500.695227,1500.695227,
   **   ~~~   ** Supply-to-demand interface deck 1 energy check value iteration history trace: 2592.633262,2592.633262,2592.633262,2592.633262,2592.633262,2592.633261,2592.633261,2592.633261,2592.633261,2592.633261,
   ** Warning ** SimHVAC: Maximum iterations (20) exceeded for all HVAC loops, at ANNUAL, 12/02 07:38 - 07:45
   **   ~~~   ** The solution for one or more of the Air Loop HVAC systems did not appear to converge
   **   ~~~   ** Air System Named = CENTRAL SYSTEM did not converge for mass flow rate
   **   ~~~   ** Check values should be zero. Most Recent values listed first.
   **   ~~~   ** Demand-to-Supply interface mass flow rate check value iteration history trace: 5.531035E-002,5.531035E-002,5.531035E-002,5.531035E-002,5.531035E-002,5.531035E-002,5.531035E-002,5.531035E-002,5.531035E-002,5.531035E-002,
   **   ~~~   ** Supply-to-demand interface deck 1 mass flow rate check value iteration history trace: 5.531035E-002,5.531035E-002,5.531035E-002,5.531035E-002,5.531035E-002,5.531035E-002,5.531035E-002,5.531035E-002,5.531035E-002,5.531035E-002,
   **   ~~~   ** Air System Named = CENTRAL SYSTEM did not converge for energy
   **   ~~~   ** Check values should be zero. Most Recent values listed first.
   **   ~~~   ** Demand-to-Supply interface energy check value iteration history trace: 1096.295012,1096.295012,1096.295012,1096.295012,1096.295012,1096.295012,1096.295012,1096.295011,1096.295011,1096.295011,
   **   ~~~   ** Supply-to-demand interface deck 1 energy check value iteration history trace: 1990.573624,1990.573624,1990.573624,1990.573624,1990.573624,1990.573624,1990.573624,1990.573624,1990.573624,1990.573624,
   ** Warning ** SimHVAC: Maximum iterations (20) exceeded for all HVAC loops, at ANNUAL, 12/24 09:45 - 09:52
   **   ~~~   ** The solution for one or more of the Air Loop HVAC systems did not appear to converge
   **   ~~~   ** Air System Named = CENTRAL SYSTEM did not converge for mass flow rate
   **   ~~~   ** Check values should be zero. Most Recent values listed first.
   **   ~~~   ** Demand-to-Supply interface mass flow rate check value iteration history trace: 8.615638E-002,8.615638E-002,8.615638E-002,8.615638E-002,8.615638E-002,8.615638E-002,8.615638E-002,8.615638E-002,8.615638E-002,8.615638E-002,
   **   ~~~   ** Supply-to-demand interface deck 1 mass flow rate check value iteration history trace: 8.615638E-002,8.615638E-002,8.615638E-002,8.615638E-002,8.615638E-002,8.615638E-002,8.615638E-002,8.615638E-002,8.615638E-002,8.615638E-002,
   **   ~~~   ** Air System Named = CENTRAL SYSTEM did not converge for energy
   **   ~~~   ** Check values should be zero. Most Recent values listed first.
   **   ~~~   ** Demand-to-Supply interface energy check value iteration history trace: 1707.120666,1707.120666,1707.120665,1707.120665,1707.120665,1707.120665,1707.120665,1707.120665,1707.120665,1707.120665,
   **   ~~~   ** Supply-to-demand interface deck 1 energy check value iteration history trace: 2924.428222,2924.428222,2924.428222,2924.428222,2924.428222,2924.428221,2924.428221,2924.428221,2924.428221,2924.428221,
   ************* Simulation Error Summary *************
   ** Warning ** The following Report Variables were requested but not generated -- check.rdd file
   **   ~~~   ** Either the IDF did not contain these elements, the variable name is misspelled,
   **   ~~~   ** or the requested variable is an advanced output which requires Output : Diagnostics, DisplayAdvancedReportVariables;
   ************* Key=*, VarName=BASEBOARD TOTAL HEATING ENERGY, Frequency=
   ************* Key=*, VarName=WATER HEATER NATURALGAS ENERGY, Frequency=
   ************* Key=*, VarName=COOLING COIL TOTAL HEATING ENERGY, Frequency=
   ************* There are 34 unused schedules in input.
   ************* There are 388 unused week schedules in input.
   ************* There are 396 unused day schedules in input.
   ************* Use Output:Diagnostics,DisplayUnusedSchedules; to see them.
   *************
   ************* ===== Recurring Error Summary =====
   ************* The following recurring error messages occurred.
   *************
   *************  ** Warning ** "TOTAL HOT WATER LOAD" - Target water temperature should be less than or equal to the hot water temperature error continues...
   *************  **   ~~~   **   This error occurred 81347 total times;
   *************  **   ~~~   **   during Warmup 0 times;
   *************  **   ~~~   **   during Sizing 0 times.
   *************  **   ~~~   **   Max=9.972399  Min=3.779792E-005
   *************
   *************
   ************* ===== Final Error Summary =====
   ************* The following error categories occurred.  Consider correcting or noting.
   ************* Nominally Unused Constructions
   ************* ..The nominally unused constructions warning is provided to alert you to potential conditions that can cause
   ************* ..extra time during simulation. Each construction is calculated by the algorithm indicated in the HeatBalanceAlgorithm
   ************* ..object. You may remove the constructions indicated (when you use the DisplayExtraWarnings option).
   *************
   ************* EnergyPlus Warmup Error Summary. During Warmup: 1 Warning; 0 Severe Errors.
   ************* EnergyPlus Sizing Error Summary. During Sizing: 4 Warning; 0 Severe Errors.
   ************* EnergyPlus Completed Successfully-- 81374 Warning; 0 Severe Errors; Elapsed Time=00hr 04min 43.48sec
