Program Version,EnergyPlus, Version 22.2.0-c249759bad, YMD=2023.09.01 18:51,
   ************* Beginning Zone Sizing Calculations
   ** Warning ** ProcessScheduleInput: Schedule:Constant="ALWAYS ON DISCRETE", Schedule Type Limits Name="ONOFF" not found -- will not be validated
   ** Warning ** Foundation:Kiva="KIVA FOUNDATION", no Interior Horizontal Insulation Material Name defined
   **   ~~~   ** Interior Horizontal Insulation Depth will not be used.
   ** Warning ** CheckUsedConstructions: There are 15 nominally unused constructions in input.
   **   ~~~   ** Each Unused construction is shown.
   ************* Construction=INTERIOR FLOOR
   ************* Construction=INTERIOR WINDOW
   ************* Construction=EXTERIOR DOOR
   ************* Construction=INTERIOR DOOR
   ************* Construction=GABLE CONSTRUCTION
   ************* Construction=CRAWL_FLOOR
   ************* Construction=INSULATED PIPE
   ************* Construction=PLAIN PIPE
   ************* Construction=TDD PIPE
   ************* Construction=TDD DOME
   ************* Construction=TDD DIFFUSER
   ************* Construction=CRAWL WALL
   ************* Construction=CEILING-FLOOR-LAYER
   ************* Construction=SLAB CONSTRUCTION W FULL R10 INSULATION
   ************* Construction=SLAB CONSTRUCTION W FULL R5 INSULATION
   ** Warning ** GetDXCoils: Coil:Heating:DX:SingleSpeed="DX_HEATING_COIL" curve values
   **   ~~~   ** ... Defrost Energy Input Ratio Function of Temperature Curve Name = DEFROSTEIR output is not equal to 1.0 (+ or - 10%) at rated conditions.
   **   ~~~   ** ... Curve output at rated conditions = 0.152
   ************* Beginning System Sizing Calculations
   ************* Beginning Plant Sizing Calculations
   ** Warning ** Coil:WaterHeating:AirToWaterHeatPump:Wrapped "HEAT PUMP WATER HEATER EVAPORATOR": Rated air volume flow rate per watt of rated total water heating capacity is out of range
   **   ~~~   ** Min Rated Vol Flow Per Watt=[4.027E-005], Rated Vol Flow Per Watt=[1.510E-004], Max Rated Vol Flow Per Watt=[8.056E-005]. See Input-Output Reference Manual for valid range.
   ************* SizeFan: : Potential issue with equipment sizing for Fan:OnOff HEAT PUMP WATER HEATER FAN
   **   ~~~   ** User-Specified Maximum Flow Rate [m3/s] = 0.22653
   **   ~~~   ** differs from Design Size Maximum Flow Rate [m3/s] = 7.55250E-002
   **   ~~~   ** This may, or may not, indicate mismatched component sizes.
   **   ~~~   ** Verify that the value entered is intended and is consistent with other components.
   ** Warning ** Water heater = WATER HEATER TANK:  Recovery Efficiency and Energy Factor could not be calculated during the test for standard ratings
   **   ~~~   ** Setpoint was never recovered and/or heater never turned on
   ** Warning ** Check input. Pump nominal power or motor efficiency is set to 0, for pump=MAINS PRESSURE
   ** Warning ** Output:Meter: invalid Key Name="ELECTRIC_RANGE:INTERIOREQUIPMENT:ELECTRICITY" - not found.
   ** Warning ** Output:Meter: invalid Key Name="ELECTRIC_DRYER:INTERIOREQUIPMENT:ELECTRICITY" - not found.
   ** Warning ** Output:Meter: invalid Key Name="HEATRECOVERY:ELECTRICITY" - not found.
   ** Warning ** Output:Meter: invalid Key Name="HEATING:NATURALGAS" - not found.
   ** Warning ** Output:Meter: invalid Key Name="WATERSYSTEMS:NATURALGAS" - not found.
   ** Warning ** Output:Meter: invalid Key Name="PROPANE:FACILITY" - not found.
   ** Warning ** Output:Meter: invalid Key Name="HEATING:PROPANE" - not found.
   ************* Testing Individual Branch Integrity
   ************* All Branches passed integrity testing
   ************* Testing Individual Supply Air Path Integrity
   ************* All Supply Air Paths passed integrity testing
   ************* Testing Individual Return Air Path Integrity
   ************* All Return Air Paths passed integrity testing
   ************* No node connection errors were found.
   ************* Beginning Simulation
   ** Warning ** AirflowNetwork::Solver::validate_distribution: Heat pump water heater is simulated along with an AirflowNetwork but is not included in the AirflowNetwork.
   ** Warning ** CalcEquipmentFlowRates: "TOTAL HOT WATER LOAD" - Target water temperature is greater than the hot water temperature by (0.16 C)
   **   ~~~   **  Environment=EXTREME_WINTER, at Simulation time=01/08 03:45 - 04:00
   **   ~~~   ** ...target water temperature     = 53.33 C
   **   ~~~   ** ...hot water temperature        = 53.17 C
   **   ~~~   ** ...Target water temperature should be less than or equal to the hot water temperature. Verify temperature setpoints and schedules.
   ** Warning ** SimHVAC: Maximum iterations (20) exceeded for all HVAC loops, at ANNUAL, 01/20 12:15 - 12:30
   **   ~~~   ** The solution for one or more of the Air Loop HVAC systems did not appear to converge
   **   ~~~   ** Air System Named = CENTRAL SYSTEM did not converge for mass flow rate
   **   ~~~   ** Check values should be zero. Most Recent values listed first.
   **   ~~~   ** Demand-to-Supply interface mass flow rate check value iteration history trace: 7.958040E-002,7.958040E-002,7.958040E-002,7.958040E-002,7.958040E-002,7.958040E-002,7.958040E-002,7.958040E-002,7.958040E-002,7.958040E-002,
   **   ~~~   ** Supply-to-demand interface deck 1 mass flow rate check value iteration history trace: 7.958040E-002,7.958040E-002,7.958040E-002,7.958040E-002,7.958040E-002,7.958040E-002,7.958040E-002,7.958040E-002,7.958040E-002,7.958040E-002,
   **   ~~~   ** Air System Named = CENTRAL SYSTEM did not converge for energy
   **   ~~~   ** Check values should be zero. Most Recent values listed first.
   **   ~~~   ** Demand-to-Supply interface energy check value iteration history trace: 1577.271872,1577.271872,1577.271872,1577.271872,1577.271872,1577.271872,1577.271872,1577.271872,1577.271871,1577.271871,
   **   ~~~   ** Supply-to-demand interface deck 1 energy check value iteration history trace: 2494.414368,2494.414368,2494.414368,2494.414368,2494.414368,2494.414368,2494.414367,2494.414367,2494.414367,2494.414367,
   ** Warning ** SimHVAC: Maximum iterations (20) exceeded for all HVAC loops, at ANNUAL, 02/19 11:38 - 11:45
   **   ~~~   ** The solution for one or more of the Air Loop HVAC systems did not appear to converge
   **   ~~~   ** Air System Named = CENTRAL SYSTEM did not converge for mass flow rate
   **   ~~~   ** Check values should be zero. Most Recent values listed first.
   **   ~~~   ** Demand-to-Supply interface mass flow rate check value iteration history trace: 5.839082E-002,5.839082E-002,5.839082E-002,5.839082E-002,5.839082E-002,5.839082E-002,5.839082E-002,5.839082E-002,5.839082E-002,5.839082E-002,
   **   ~~~   ** Supply-to-demand interface deck 1 mass flow rate check value iteration history trace: 5.839082E-002,5.839082E-002,5.839082E-002,5.839082E-002,5.839082E-002,5.839082E-002,5.839082E-002,5.839082E-002,5.839082E-002,5.839082E-002,
   **   ~~~   ** Air System Named = CENTRAL SYSTEM did not converge for energy
   **   ~~~   ** Check values should be zero. Most Recent values listed first.
   **   ~~~   ** Demand-to-Supply interface energy check value iteration history trace: 1157.498762,1157.498762,1157.498762,1157.498762,1157.498762,1157.498762,1157.498762,1157.498762,1157.498761,1157.498761,
   **   ~~~   ** Supply-to-demand interface deck 1 energy check value iteration history trace: 2026.304511,2026.304511,2026.304511,2026.304511,2026.304511,2026.304511,2026.304510,2026.304510,2026.304510,2026.304510,
   ** Warning ** SimHVAC: Maximum iterations (20) exceeded for all HVAC loops, at ANNUAL, 02/19 16:00 - 16:15
   **   ~~~   ** The solution for one or more of the Air Loop HVAC systems did not appear to converge
   **   ~~~   ** Air System Named = CENTRAL SYSTEM did not converge for mass flow rate
   **   ~~~   ** Check values should be zero. Most Recent values listed first.
   **   ~~~   ** Demand-to-Supply interface mass flow rate check value iteration history trace: 7.369481E-002,7.369481E-002,7.369481E-002,7.369481E-002,7.369481E-002,7.369481E-002,7.369481E-002,7.369481E-002,7.369481E-002,7.369481E-002,
   **   ~~~   ** Supply-to-demand interface deck 1 mass flow rate check value iteration history trace: 7.369481E-002,7.369481E-002,7.369481E-002,7.369481E-002,7.369481E-002,7.369481E-002,7.369481E-002,7.369481E-002,7.369481E-002,7.369481E-002,
   **   ~~~   ** Air System Named = CENTRAL SYSTEM did not converge for energy
   **   ~~~   ** Check values should be zero. Most Recent values listed first.
   **   ~~~   ** Demand-to-Supply interface energy check value iteration history trace: 1460.209792,1460.209792,1460.209792,1460.209792,1460.209791,1460.209791,1460.209791,1460.209791,1460.209791,1460.209791,
   **   ~~~   ** Supply-to-demand interface deck 1 energy check value iteration history trace: 2462.779555,2462.779554,2462.779554,2462.779554,2462.779554,2462.779554,2462.779554,2462.779554,2462.779554,2462.779553,
   ** Warning ** SimHVAC: Maximum iterations (20) exceeded for all HVAC loops, at ANNUAL, 05/10 07:30 - 07:45
   **   ~~~   ** The solution for one or more of the Air Loop HVAC systems did not appear to converge
   **   ~~~   ** Air System Named = CENTRAL SYSTEM did not converge for mass flow rate
   **   ~~~   ** Check values should be zero. Most Recent values listed first.
   **   ~~~   ** Demand-to-Supply interface mass flow rate check value iteration history trace: 4.364765E-002,4.364765E-002,4.364765E-002,4.364765E-002,4.364765E-002,4.364765E-002,4.364765E-002,4.364765E-002,4.364765E-002,4.364765E-002,
   **   ~~~   ** Supply-to-demand interface deck 1 mass flow rate check value iteration history trace: 4.364765E-002,4.364765E-002,4.364765E-002,4.364765E-002,4.364765E-002,4.364765E-002,4.364765E-002,4.364765E-002,4.364765E-002,4.364765E-002,
   **   ~~~   ** Air System Named = CENTRAL SYSTEM did not converge for energy
   **   ~~~   ** Check values should be zero. Most Recent values listed first.
   **   ~~~   ** Demand-to-Supply interface energy check value iteration history trace: 857.719868,857.719868,857.719868,857.719867,857.719867,857.719867,857.719867,857.719867,857.719867,857.719867,
   **   ~~~   ** Supply-to-demand interface deck 1 energy check value iteration history trace: 1542.212531,1542.212531,1542.212531,1542.212531,1542.212531,1542.212531,1542.212531,1542.212531,1542.212531,1542.212531,
   ** Warning ** SimHVAC: Maximum iterations (20) exceeded for all HVAC loops, at ANNUAL, 10/21 11:15 - 11:30
   **   ~~~   ** The solution for one or more of the Air Loop HVAC systems did not appear to converge
   **   ~~~   ** Air System Named = CENTRAL SYSTEM did not converge for mass flow rate
   **   ~~~   ** Check values should be zero. Most Recent values listed first.
   **   ~~~   ** Demand-to-Supply interface mass flow rate check value iteration history trace: 9.106001E-002,9.106001E-002,9.106001E-002,9.106001E-002,9.106001E-002,9.106001E-002,9.106001E-002,9.106001E-002,9.106001E-002,9.106001E-002,
   **   ~~~   ** Supply-to-demand interface deck 1 mass flow rate check value iteration history trace: 9.106001E-002,9.106001E-002,9.106001E-002,9.106001E-002,9.106001E-002,9.106001E-002,9.106001E-002,9.106001E-002,9.106001E-002,9.106001E-002,
   **   ~~~   ** Air System Named = CENTRAL SYSTEM did not converge for energy
   **   ~~~   ** Check values should be zero. Most Recent values listed first.
   **   ~~~   ** Demand-to-Supply interface energy check value iteration history trace: 2160.551619,2160.551619,2160.551619,2160.551619,2160.551619,2160.551619,2160.551619,2160.551619,2160.551620,2160.551620,
   **   ~~~   ** Supply-to-demand interface deck 1 energy check value iteration history trace: 877.338370,877.338370,877.338370,877.338370,877.338370,877.338370,877.338370,877.338370,877.338370,877.338370,
   ** Warning ** SimHVAC: Maximum iterations (20) exceeded for all HVAC loops, at ANNUAL, 10/21 20:00 - 20:15
   **   ~~~   ** The solution for one or more of the Air Loop HVAC systems did not appear to converge
   **   ~~~   ** Air System Named = CENTRAL SYSTEM did not converge for mass flow rate
   **   ~~~   ** Check values should be zero. Most Recent values listed first.
   **   ~~~   ** Demand-to-Supply interface mass flow rate check value iteration history trace: 0.106407,0.106407,0.106407,0.106407,0.106407,0.106407,0.106407,0.106407,0.106407,0.106407,
   **   ~~~   ** Supply-to-demand interface deck 1 mass flow rate check value iteration history trace: 0.106407,0.106407,0.106407,0.106407,0.106407,0.106407,0.106407,0.106407,0.106407,0.106407,
   **   ~~~   ** Air System Named = CENTRAL SYSTEM did not converge for energy
   **   ~~~   ** Check values should be zero. Most Recent values listed first.
   **   ~~~   ** Demand-to-Supply interface energy check value iteration history trace: 2550.828577,2550.828577,2550.828577,2550.828577,2550.828578,2550.828578,2550.828578,2550.828578,2550.828578,2550.828578,
   **   ~~~   ** Supply-to-demand interface deck 1 energy check value iteration history trace: 1056.818353,1056.818353,1056.818353,1056.818353,1056.818353,1056.818353,1056.818353,1056.818353,1056.818353,1056.818353,
   ** Warning ** SimHVAC: Maximum iterations (20) exceeded for all HVAC loops, at ANNUAL, 10/22 20:30 - 20:45
   **   ~~~   ** The solution for one or more of the Air Loop HVAC systems did not appear to converge
   **   ~~~   ** Air System Named = CENTRAL SYSTEM did not converge for mass flow rate
   **   ~~~   ** Check values should be zero. Most Recent values listed first.
   **   ~~~   ** Demand-to-Supply interface mass flow rate check value iteration history trace: 9.505446E-002,9.505446E-002,9.505446E-002,9.505446E-002,9.505446E-002,9.505446E-002,9.505446E-002,9.505446E-002,9.505446E-002,9.505446E-002,
   **   ~~~   ** Supply-to-demand interface deck 1 mass flow rate check value iteration history trace: 9.505446E-002,9.505446E-002,9.505446E-002,9.505446E-002,9.505446E-002,9.505446E-002,9.505446E-002,9.505446E-002,9.505446E-002,9.505446E-002,
   **   ~~~   ** Air System Named = CENTRAL SYSTEM did not converge for energy
   **   ~~~   ** Check values should be zero. Most Recent values listed first.
   **   ~~~   ** Demand-to-Supply interface energy check value iteration history trace: 2273.237777,2273.237777,2273.237778,2273.237778,2273.237778,2273.237778,2273.237778,2273.237778,2273.237778,2273.237778,
   **   ~~~   ** Supply-to-demand interface deck 1 energy check value iteration history trace: 929.451734,929.451734,929.451734,929.451734,929.451734,929.451734,929.451734,929.451735,929.451735,929.451735,
   ** Warning ** SimHVAC: Maximum iterations (20) exceeded for all HVAC loops, at ANNUAL, 10/23 07:45 - 08:00
   **   ~~~   ** The solution for one or more of the Air Loop HVAC systems did not appear to converge
   **   ~~~   ** Air System Named = CENTRAL SYSTEM did not converge for mass flow rate
   **   ~~~   ** Check values should be zero. Most Recent values listed first.
   **   ~~~   ** Demand-to-Supply interface mass flow rate check value iteration history trace: 6.326056E-002,6.326056E-002,6.326056E-002,6.326056E-002,6.326056E-002,6.326056E-002,6.326056E-002,6.326056E-002,6.326056E-002,6.326056E-002,
   **   ~~~   ** Supply-to-demand interface deck 1 mass flow rate check value iteration history trace: 6.326056E-002,6.326056E-002,6.326056E-002,6.326056E-002,6.326056E-002,6.326056E-002,6.326056E-002,6.326056E-002,6.326056E-002,6.326056E-002,
   **   ~~~   ** Air System Named = CENTRAL SYSTEM did not converge for energy
   **   ~~~   ** Check values should be zero. Most Recent values listed first.
   **   ~~~   ** Demand-to-Supply interface energy check value iteration history trace: 1251.848195,1251.848195,1251.848195,1251.848194,1251.848194,1251.848194,1251.848194,1251.848194,1251.848194,1251.848194,
   **   ~~~   ** Supply-to-demand interface deck 1 energy check value iteration history trace: 2186.708425,2186.708425,2186.708425,2186.708425,2186.708425,2186.708425,2186.708424,2186.708424,2186.708424,2186.708424,
   ** Warning ** SimHVAC: Maximum iterations (20) exceeded for all HVAC loops, at ANNUAL, 10/23 08:30 - 08:35
   **   ~~~   ** The solution for one or more of the Air Loop HVAC systems did not appear to converge
   **   ~~~   ** Air System Named = CENTRAL SYSTEM did not converge for mass flow rate
   **   ~~~   ** Check values should be zero. Most Recent values listed first.
   **   ~~~   ** Demand-to-Supply interface mass flow rate check value iteration history trace: 5.778772E-002,5.778772E-002,5.778772E-002,5.778772E-002,5.778772E-002,5.778772E-002,5.778772E-002,5.778772E-002,5.778772E-002,5.778772E-002,
   **   ~~~   ** Supply-to-demand interface deck 1 mass flow rate check value iteration history trace: 5.778772E-002,5.778772E-002,5.778772E-002,5.778772E-002,5.778772E-002,5.778772E-002,5.778772E-002,5.778772E-002,5.778772E-002,5.778772E-002,
   **   ~~~   ** Air System Named = CENTRAL SYSTEM did not converge for energy
   **   ~~~   ** Check values should be zero. Most Recent values listed first.
   **   ~~~   ** Demand-to-Supply interface energy check value iteration history trace: 1140.412543,1140.412543,1140.412543,1140.412543,1140.412543,1140.412543,1140.412543,1140.412543,1140.412543,1140.412543,
   **   ~~~   ** Supply-to-demand interface deck 1 energy check value iteration history trace: 2028.324245,2028.324245,2028.324245,2028.324245,2028.324244,2028.324244,2028.324244,2028.324244,2028.324244,2028.324244,
   ** Warning ** SimHVAC: Maximum iterations (20) exceeded for all HVAC loops, at ANNUAL, 11/02 08:41 - 08:45
   **   ~~~   ** The solution for one or more of the Air Loop HVAC systems did not appear to converge
   **   ~~~   ** Air System Named = CENTRAL SYSTEM did not converge for mass flow rate
   **   ~~~   ** Check values should be zero. Most Recent values listed first.
   **   ~~~   ** Demand-to-Supply interface mass flow rate check value iteration history trace: 2.017851E-002,2.017851E-002,2.017851E-002,2.017851E-002,2.017851E-002,2.017851E-002,2.017851E-002,2.017851E-002,2.017851E-002,2.017851E-002,
   **   ~~~   ** Supply-to-demand interface deck 1 mass flow rate check value iteration history trace: 2.017851E-002,2.017851E-002,2.017851E-002,2.017851E-002,2.017851E-002,2.017851E-002,2.017851E-002,2.017851E-002,2.017851E-002,2.017851E-002,
   **   ~~~   ** Air System Named = CENTRAL SYSTEM did not converge for energy
   **   ~~~   ** Check values should be zero. Most Recent values listed first.
   **   ~~~   ** Demand-to-Supply interface energy check value iteration history trace: 399.870525,399.870525,399.870524,399.870524,399.870524,399.870524,399.870524,399.870524,399.870524,399.870524,
   **   ~~~   ** Supply-to-demand interface deck 1 energy check value iteration history trace: 665.798731,665.798731,665.798731,665.798731,665.798730,665.798730,665.798730,665.798730,665.798730,665.798730,
   ** Warning ** SimHVAC: Maximum iterations (20) exceeded for all HVAC loops, at ANNUAL, 11/03 08:32 - 08:35
   **   ~~~   ** The solution for one or more of the Air Loop HVAC systems did not appear to converge
   **   ~~~   ** Air System Named = CENTRAL SYSTEM did not converge for mass flow rate
   **   ~~~   ** Check values should be zero. Most Recent values listed first.
   **   ~~~   ** Demand-to-Supply interface mass flow rate check value iteration history trace: 8.374266E-002,8.374266E-002,8.374266E-002,8.374266E-002,8.374266E-002,8.374266E-002,8.374266E-002,8.374266E-002,8.374266E-002,8.374266E-002,
   **   ~~~   ** Supply-to-demand interface deck 1 mass flow rate check value iteration history trace: 8.374266E-002,8.374266E-002,8.374266E-002,8.374266E-002,8.374266E-002,8.374266E-002,8.374266E-002,8.374266E-002,8.374266E-002,8.374266E-002,
   **   ~~~   ** Air System Named = CENTRAL SYSTEM did not converge for energy
   **   ~~~   ** Check values should be zero. Most Recent values listed first.
   **   ~~~   ** Demand-to-Supply interface energy check value iteration history trace: 1659.522469,1659.522469,1659.522469,1659.522469,1659.522468,1659.522468,1659.522468,1659.522468,1659.522468,1659.522468,
   **   ~~~   ** Supply-to-demand interface deck 1 energy check value iteration history trace: 2579.581709,2579.581709,2579.581708,2579.581708,2579.581708,2579.581708,2579.581708,2579.581708,2579.581707,2579.581707,
   ** Warning ** SimHVAC: Maximum iterations (20) exceeded for all HVAC loops, at ANNUAL, 11/26 14:45 - 15:00
   **   ~~~   ** The solution for one or more of the Air Loop HVAC systems did not appear to converge
   **   ~~~   ** Air System Named = CENTRAL SYSTEM did not converge for mass flow rate
   **   ~~~   ** Check values should be zero. Most Recent values listed first.
   **   ~~~   ** Demand-to-Supply interface mass flow rate check value iteration history trace: 6.724728E-002,6.724728E-002,6.724728E-002,6.724728E-002,6.724728E-002,6.724728E-002,6.724728E-002,6.724728E-002,6.724728E-002,6.724728E-002,
   **   ~~~   ** Supply-to-demand interface deck 1 mass flow rate check value iteration history trace: 6.724728E-002,6.724728E-002,6.724728E-002,6.724728E-002,6.724728E-002,6.724728E-002,6.724728E-002,6.724728E-002,6.724728E-002,6.724728E-002,
   **   ~~~   ** Air System Named = CENTRAL SYSTEM did not converge for energy
   **   ~~~   ** Check values should be zero. Most Recent values listed first.
   **   ~~~   ** Demand-to-Supply interface energy check value iteration history trace: 1335.177274,1335.177274,1335.177274,1335.177274,1335.177273,1335.177273,1335.177273,1335.177273,1335.177273,1335.177273,
   **   ~~~   ** Supply-to-demand interface deck 1 energy check value iteration history trace: 2342.115982,2342.115982,2342.115982,2342.115982,2342.115982,2342.115982,2342.115981,2342.115981,2342.115981,2342.115981,
   ** Warning ** SimHVAC: Maximum iterations (20) exceeded for all HVAC loops, at ANNUAL, 12/04 19:15 - 19:22
   **   ~~~   ** The solution for one or more of the Air Loop HVAC systems did not appear to converge
   **   ~~~   ** Air System Named = CENTRAL SYSTEM did not converge for mass flow rate
   **   ~~~   ** Check values should be zero. Most Recent values listed first.
   **   ~~~   ** Demand-to-Supply interface mass flow rate check value iteration history trace: 6.879001E-002,6.879001E-002,6.879001E-002,6.879001E-002,6.879001E-002,6.879001E-002,6.879001E-002,6.879001E-002,6.879001E-002,6.879001E-002,
   **   ~~~   ** Supply-to-demand interface deck 1 mass flow rate check value iteration history trace: 6.879001E-002,6.879001E-002,6.879001E-002,6.879001E-002,6.879001E-002,6.879001E-002,6.879001E-002,6.879001E-002,6.879001E-002,6.879001E-002,
   **   ~~~   ** Air System Named = CENTRAL SYSTEM did not converge for energy
   **   ~~~   ** Check values should be zero. Most Recent values listed first.
   **   ~~~   ** Demand-to-Supply interface energy check value iteration history trace: 1363.582487,1363.582486,1363.582486,1363.582486,1363.582486,1363.582486,1363.582486,1363.582486,1363.582486,1363.582486,
   **   ~~~   ** Supply-to-demand interface deck 1 energy check value iteration history trace: 2317.168424,2317.168424,2317.168424,2317.168424,2317.168424,2317.168424,2317.168424,2317.168423,2317.168423,2317.168423,
   ** Warning ** SimHVAC: Maximum iterations (20) exceeded for all HVAC loops, at ANNUAL, 12/07 13:00 - 13:15
   **   ~~~   ** The solution for one or more of the Air Loop HVAC systems did not appear to converge
   **   ~~~   ** Air System Named = CENTRAL SYSTEM did not converge for mass flow rate
   **   ~~~   ** Check values should be zero. Most Recent values listed first.
   **   ~~~   ** Demand-to-Supply interface mass flow rate check value iteration history trace: 5.875890E-002,5.875890E-002,5.875890E-002,5.875890E-002,5.875890E-002,5.875890E-002,5.875890E-002,5.875890E-002,5.875890E-002,5.875890E-002,
   **   ~~~   ** Supply-to-demand interface deck 1 mass flow rate check value iteration history trace: 5.875890E-002,5.875890E-002,5.875890E-002,5.875890E-002,5.875890E-002,5.875890E-002,5.875890E-002,5.875890E-002,5.875890E-002,5.875890E-002,
   **   ~~~   ** Air System Named = CENTRAL SYSTEM did not converge for energy
   **   ~~~   ** Check values should be zero. Most Recent values listed first.
   **   ~~~   ** Demand-to-Supply interface energy check value iteration history trace: 1151.092644,1151.092644,1151.092644,1151.092644,1151.092643,1151.092643,1151.092643,1151.092643,1151.092643,1151.092643,
   **   ~~~   ** Supply-to-demand interface deck 1 energy check value iteration history trace: 1965.695184,1965.695184,1965.695184,1965.695184,1965.695184,1965.695184,1965.695184,1965.695184,1965.695183,1965.695183,
   ************* Simulation Error Summary *************
   ** Warning ** The following Report Variables were requested but not generated -- check.rdd file
   **   ~~~   ** Either the IDF did not contain these elements, the variable name is misspelled,
   **   ~~~   ** or the requested variable is an advanced output which requires Output : Diagnostics, DisplayAdvancedReportVariables;
   ************* Key=*, VarName=BASEBOARD TOTAL HEATING ENERGY, Frequency=
   ************* Key=*, VarName=WATER HEATER NATURALGAS ENERGY, Frequency=
   ************* Key=*, VarName=COOLING COIL TOTAL HEATING ENERGY, Frequency=
   ************* There are 34 unused schedules in input.
   ************* There are 388 unused week schedules in input.
   ************* There are 396 unused day schedules in input.
   ************* Use Output:Diagnostics,DisplayUnusedSchedules; to see them.
   *************
   ************* ===== Recurring Error Summary =====
   ************* The following recurring error messages occurred.
   *************
   *************  ** Warning ** "TOTAL HOT WATER LOAD" - Target water temperature should be less than or equal to the hot water temperature error continues...
   *************  **   ~~~   **   This error occurred 53219 total times;
   *************  **   ~~~   **   during Warmup 0 times;
   *************  **   ~~~   **   during Sizing 0 times.
   *************  **   ~~~   **   Max=6.601256  Min=4.089730E-004
   *************
   *************  ** Warning ** SimHVAC: Exceeding Maximum iterations for all HVAC loops, during ANNUAL continues
   *************  **   ~~~   **   This error occurred 2 total times;
   *************  **   ~~~   **   during Warmup 0 times;
   *************  **   ~~~   **   during Sizing 0 times.
   *************
   *************
   ************* ===== Final Error Summary =====
   ************* The following error categories occurred.  Consider correcting or noting.
   ************* Nominally Unused Constructions
   ************* ..The nominally unused constructions warning is provided to alert you to potential conditions that can cause
   ************* ..extra time during simulation. Each construction is calculated by the algorithm indicated in the HeatBalanceAlgorithm
   ************* ..object. You may remove the constructions indicated (when you use the DisplayExtraWarnings option).
   *************
   ************* EnergyPlus Warmup Error Summary. During Warmup: 1 Warning; 0 Severe Errors.
   ************* EnergyPlus Sizing Error Summary. During Sizing: 4 Warning; 0 Severe Errors.
   ************* EnergyPlus Completed Successfully-- 53252 Warning; 0 Severe Errors; Elapsed Time=00hr 01min 22.88sec
