Program Version,EnergyPlus, Version 22.2.0-c249759bad, YMD=2023.09.01 18:58,
   ************* Beginning Zone Sizing Calculations
   ** Warning ** ProcessScheduleInput: Schedule:Constant="ALWAYS ON DISCRETE", Schedule Type Limits Name="ONOFF" not found -- will not be validated
   ** Warning ** Foundation:Kiva="KIVA FOUNDATION", no Interior Horizontal Insulation Material Name defined
   **   ~~~   ** Interior Horizontal Insulation Depth will not be used.
   ** Warning ** CheckUsedConstructions: There are 15 nominally unused constructions in input.
   **   ~~~   ** Each Unused construction is shown.
   ************* Construction=INTERIOR FLOOR
   ************* Construction=INTERIOR WINDOW
   ************* Construction=EXTERIOR DOOR
   ************* Construction=INTERIOR DOOR
   ************* Construction=GABLE CONSTRUCTION
   ************* Construction=CRAWL_FLOOR
   ************* Construction=INSULATED PIPE
   ************* Construction=PLAIN PIPE
   ************* Construction=TDD PIPE
   ************* Construction=TDD DOME
   ************* Construction=TDD DIFFUSER
   ************* Construction=CRAWL WALL
   ************* Construction=CEILING-FLOOR-LAYER
   ************* Construction=SLAB CONSTRUCTION W FULL R10 INSULATION
   ************* Construction=SLAB CONSTRUCTION W FULL R5 INSULATION
   ** Warning ** GetDXCoils: Coil:Heating:DX:SingleSpeed="DX_HEATING_COIL" curve values
   **   ~~~   ** ... Defrost Energy Input Ratio Function of Temperature Curve Name = DEFROSTEIR output is not equal to 1.0 (+ or - 10%) at rated conditions.
   **   ~~~   ** ... Curve output at rated conditions = 0.152
   ************* Beginning System Sizing Calculations
   ************* Beginning Plant Sizing Calculations
   ** Warning ** SizeDXCoil Coil:Cooling:DX:SingleSpeed DX_COOLING_COIL
   **   ~~~   ** ...Gross Rated Total Cooling Capacity [W] will be limited by the maximum rated volume flow per rated total capacity ratio.
   **   ~~~   ** ...DX coil volume flow rate ( m3/s ) = 0.384020
   **   ~~~   ** ...Requested capacity ( W ) = 6121.278
   **   ~~~   ** ...Requested flow/capacity ratio ( m3/s/W ) = 6.273E-005
   **   ~~~   ** ...Maximum flow/capacity ratio ( m3/s/W ) = 6.041E-005
   **   ~~~   ** ...Adjusted capacity ( W ) = 6356.903
   ** Warning ** Coil:WaterHeating:AirToWaterHeatPump:Wrapped "HEAT PUMP WATER HEATER EVAPORATOR": Rated air volume flow rate per watt of rated total water heating capacity is out of range
   **   ~~~   ** Min Rated Vol Flow Per Watt=[4.027E-005], Rated Vol Flow Per Watt=[1.510E-004], Max Rated Vol Flow Per Watt=[8.056E-005]. See Input-Output Reference Manual for valid range.
   ************* SizeFan: : Potential issue with equipment sizing for Fan:OnOff HEAT PUMP WATER HEATER FAN
   **   ~~~   ** User-Specified Maximum Flow Rate [m3/s] = 0.22653
   **   ~~~   ** differs from Design Size Maximum Flow Rate [m3/s] = 7.55250E-002
   **   ~~~   ** This may, or may not, indicate mismatched component sizes.
   **   ~~~   ** Verify that the value entered is intended and is consistent with other components.
   ** Warning ** Water heater = WATER HEATER TANK:  Recovery Efficiency and Energy Factor could not be calculated during the test for standard ratings
   **   ~~~   ** Setpoint was never recovered and/or heater never turned on
   ** Warning ** Check input. Pump nominal power or motor efficiency is set to 0, for pump=MAINS PRESSURE
   ** Warning ** Output:Meter: invalid Key Name="ELECTRIC_RANGE:INTERIOREQUIPMENT:ELECTRICITY" - not found.
   ** Warning ** Output:Meter: invalid Key Name="ELECTRIC_DRYER:INTERIOREQUIPMENT:ELECTRICITY" - not found.
   ** Warning ** Output:Meter: invalid Key Name="HEATRECOVERY:ELECTRICITY" - not found.
   ** Warning ** Output:Meter: invalid Key Name="HEATING:NATURALGAS" - not found.
   ** Warning ** Output:Meter: invalid Key Name="WATERSYSTEMS:NATURALGAS" - not found.
   ** Warning ** Output:Meter: invalid Key Name="PROPANE:FACILITY" - not found.
   ** Warning ** Output:Meter: invalid Key Name="HEATING:PROPANE" - not found.
   ************* Testing Individual Branch Integrity
   ************* All Branches passed integrity testing
   ************* Testing Individual Supply Air Path Integrity
   ************* All Supply Air Paths passed integrity testing
   ************* Testing Individual Return Air Path Integrity
   ************* All Return Air Paths passed integrity testing
   ************* No node connection errors were found.
   ************* Beginning Simulation
   ** Warning ** AirflowNetwork::Solver::validate_distribution: Heat pump water heater is simulated along with an AirflowNetwork but is not included in the AirflowNetwork.
   ** Warning ** CalcEquipmentFlowRates: "TOTAL HOT WATER LOAD" - Target water temperature is greater than the hot water temperature by (1.85 C)
   **   ~~~   **  Environment=EXTREME_WINTER, at Simulation time=01/20 03:45 - 04:00
   **   ~~~   ** ...target water temperature     = 53.33 C
   **   ~~~   ** ...hot water temperature        = 51.48 C
   **   ~~~   ** ...Target water temperature should be less than or equal to the hot water temperature. Verify temperature setpoints and schedules.
   ** Warning ** SimHVAC: Maximum iterations (20) exceeded for all HVAC loops, at ANNUAL, 01/13 13:15 - 13:30
   **   ~~~   ** The solution for one or more of the Air Loop HVAC systems did not appear to converge
   **   ~~~   ** Air System Named = CENTRAL SYSTEM did not converge for mass flow rate
   **   ~~~   ** Check values should be zero. Most Recent values listed first.
   **   ~~~   ** Demand-to-Supply interface mass flow rate check value iteration history trace: 6.103315E-002,6.103315E-002,6.103315E-002,6.103315E-002,6.103315E-002,6.103315E-002,6.103315E-002,6.103315E-002,6.103315E-002,6.103315E-002,
   **   ~~~   ** Supply-to-demand interface deck 1 mass flow rate check value iteration history trace: 6.103315E-002,6.103315E-002,6.103315E-002,6.103315E-002,6.103315E-002,6.103315E-002,6.103315E-002,6.103315E-002,6.103315E-002,6.103315E-002,
   **   ~~~   ** Air System Named = CENTRAL SYSTEM did not converge for energy
   **   ~~~   ** Check values should be zero. Most Recent values listed first.
   **   ~~~   ** Demand-to-Supply interface energy check value iteration history trace: 1206.942823,1206.942823,1206.942823,1206.942823,1206.942823,1206.942823,1206.942823,1206.942823,1206.942823,1206.942823,
   **   ~~~   ** Supply-to-demand interface deck 1 energy check value iteration history trace: 2009.005375,2009.005375,2009.005375,2009.005375,2009.005375,2009.005374,2009.005374,2009.005374,2009.005374,2009.005374,
   ** Warning ** SimHVAC: Maximum iterations (20) exceeded for all HVAC loops, at ANNUAL, 03/25 09:30 - 09:32
   **   ~~~   ** The solution for one or more of the Air Loop HVAC systems did not appear to converge
   **   ~~~   ** Air System Named = CENTRAL SYSTEM did not converge for mass flow rate
   **   ~~~   ** Check values should be zero. Most Recent values listed first.
   **   ~~~   ** Demand-to-Supply interface mass flow rate check value iteration history trace: 8.970422E-002,8.970422E-002,8.970422E-002,8.970422E-002,8.970422E-002,8.970422E-002,8.970422E-002,8.970422E-002,8.970422E-002,8.970422E-002,
   **   ~~~   ** Supply-to-demand interface deck 1 mass flow rate check value iteration history trace: 8.970422E-002,8.970422E-002,8.970422E-002,8.970422E-002,8.970422E-002,8.970422E-002,8.970422E-002,8.970422E-002,8.970422E-002,8.970422E-002,
   **   ~~~   ** Air System Named = CENTRAL SYSTEM did not converge for energy
   **   ~~~   ** Check values should be zero. Most Recent values listed first.
   **   ~~~   ** Demand-to-Supply interface energy check value iteration history trace: 1777.695019,1777.695019,1777.695019,1777.695019,1777.695019,1777.695019,1777.695019,1777.695019,1777.695018,1777.695018,
   **   ~~~   ** Supply-to-demand interface deck 1 energy check value iteration history trace: 2803.764501,2803.764500,2803.764500,2803.764500,2803.764500,2803.764500,2803.764500,2803.764499,2803.764499,2803.764499,
   ** Warning ** SimHVAC: Maximum iterations (20) exceeded for all HVAC loops, at ANNUAL, 04/20 08:30 - 08:45
   **   ~~~   ** The solution for one or more of the Air Loop HVAC systems did not appear to converge
   **   ~~~   ** Air System Named = CENTRAL SYSTEM did not converge for mass flow rate
   **   ~~~   ** Check values should be zero. Most Recent values listed first.
   **   ~~~   ** Demand-to-Supply interface mass flow rate check value iteration history trace: 6.627428E-002,6.627428E-002,6.627428E-002,6.627428E-002,6.627428E-002,6.627428E-002,6.627428E-002,6.627428E-002,6.627428E-002,6.627428E-002,
   **   ~~~   ** Supply-to-demand interface deck 1 mass flow rate check value iteration history trace: 6.627428E-002,6.627428E-002,6.627428E-002,6.627428E-002,6.627428E-002,6.627428E-002,6.627428E-002,6.627428E-002,6.627428E-002,6.627428E-002,
   **   ~~~   ** Air System Named = CENTRAL SYSTEM did not converge for energy
   **   ~~~   ** Check values should be zero. Most Recent values listed first.
   **   ~~~   ** Demand-to-Supply interface energy check value iteration history trace: 1313.361067,1313.361067,1313.361067,1313.361067,1313.361067,1313.361067,1313.361067,1313.361067,1313.361067,1313.361067,
   **   ~~~   ** Supply-to-demand interface deck 1 energy check value iteration history trace: 2252.267407,2252.267406,2252.267406,2252.267406,2252.267406,2252.267406,2252.267406,2252.267406,2252.267406,2252.267406,
   ** Warning ** SimHVAC: Maximum iterations (20) exceeded for all HVAC loops, at ANNUAL, 11/11 10:06 - 10:09
   **   ~~~   ** The solution for one or more of the Air Loop HVAC systems did not appear to converge
   **   ~~~   ** Air System Named = CENTRAL SYSTEM did not converge for mass flow rate
   **   ~~~   ** Check values should be zero. Most Recent values listed first.
   **   ~~~   ** Demand-to-Supply interface mass flow rate check value iteration history trace: 7.433050E-002,7.433050E-002,7.433050E-002,7.433050E-002,7.433050E-002,7.433050E-002,7.433050E-002,7.433050E-002,7.433050E-002,7.433050E-002,
   **   ~~~   ** Supply-to-demand interface deck 1 mass flow rate check value iteration history trace: 7.433050E-002,7.433050E-002,7.433050E-002,7.433050E-002,7.433050E-002,7.433050E-002,7.433050E-002,7.433050E-002,7.433050E-002,7.433050E-002,
   **   ~~~   ** Air System Named = CENTRAL SYSTEM did not converge for energy
   **   ~~~   ** Check values should be zero. Most Recent values listed first.
   **   ~~~   ** Demand-to-Supply interface energy check value iteration history trace: 1468.398002,1468.398002,1468.398002,1468.398002,1468.398002,1468.398002,1468.398002,1468.398001,1468.398001,1468.398001,
   **   ~~~   ** Supply-to-demand interface deck 1 energy check value iteration history trace: 2489.802187,2489.802187,2489.802187,2489.802187,2489.802187,2489.802187,2489.802187,2489.802187,2489.802186,2489.802186,
   ** Warning ** SimHVAC: Maximum iterations (20) exceeded for all HVAC loops, at ANNUAL, 12/02 11:30 - 11:34
   **   ~~~   ** The solution for one or more of the Air Loop HVAC systems did not appear to converge
   **   ~~~   ** Air System Named = CENTRAL SYSTEM did not converge for mass flow rate
   **   ~~~   ** Check values should be zero. Most Recent values listed first.
   **   ~~~   ** Demand-to-Supply interface mass flow rate check value iteration history trace: 6.665434E-002,6.665434E-002,6.665434E-002,6.665434E-002,6.665434E-002,6.665434E-002,6.665434E-002,6.665434E-002,6.665434E-002,6.665434E-002,
   **   ~~~   ** Supply-to-demand interface deck 1 mass flow rate check value iteration history trace: 6.665434E-002,6.665434E-002,6.665434E-002,6.665434E-002,6.665434E-002,6.665434E-002,6.665434E-002,6.665434E-002,6.665434E-002,6.665434E-002,
   **   ~~~   ** Air System Named = CENTRAL SYSTEM did not converge for energy
   **   ~~~   ** Check values should be zero. Most Recent values listed first.
   **   ~~~   ** Demand-to-Supply interface energy check value iteration history trace: 1320.883152,1320.883152,1320.883152,1320.883152,1320.883152,1320.883152,1320.883152,1320.883152,1320.883152,1320.883152,
   **   ~~~   ** Supply-to-demand interface deck 1 energy check value iteration history trace: 2205.996169,2205.996169,2205.996169,2205.996169,2205.996169,2205.996168,2205.996168,2205.996168,2205.996168,2205.996168,
   ** Warning ** SimHVAC: Maximum iterations (20) exceeded for all HVAC loops, at ANNUAL, 12/02 15:30 - 15:45
   **   ~~~   ** The solution for one or more of the Air Loop HVAC systems did not appear to converge
   **   ~~~   ** Air System Named = CENTRAL SYSTEM did not converge for mass flow rate
   **   ~~~   ** Check values should be zero. Most Recent values listed first.
   **   ~~~   ** Demand-to-Supply interface mass flow rate check value iteration history trace: 5.710810E-002,5.710810E-002,5.710810E-002,5.710810E-002,5.710810E-002,5.710810E-002,5.710810E-002,5.710810E-002,5.710810E-002,5.710810E-002,
   **   ~~~   ** Supply-to-demand interface deck 1 mass flow rate check value iteration history trace: 5.710810E-002,5.710810E-002,5.710810E-002,5.710810E-002,5.710810E-002,5.710810E-002,5.710810E-002,5.710810E-002,5.710810E-002,5.710810E-002,
   **   ~~~   ** Air System Named = CENTRAL SYSTEM did not converge for energy
   **   ~~~   ** Check values should be zero. Most Recent values listed first.
   **   ~~~   ** Demand-to-Supply interface energy check value iteration history trace: 1130.436993,1130.436993,1130.436992,1130.436992,1130.436992,1130.436992,1130.436992,1130.436992,1130.436992,1130.436992,
   **   ~~~   ** Supply-to-demand interface deck 1 energy check value iteration history trace: 1941.792303,1941.792303,1941.792303,1941.792303,1941.792303,1941.792303,1941.792303,1941.792303,1941.792303,1941.792302,
   ** Warning ** SimHVAC: Maximum iterations (20) exceeded for all HVAC loops, at ANNUAL, 12/12 20:15 - 20:22
   **   ~~~   ** The solution for one or more of the Air Loop HVAC systems did not appear to converge
   **   ~~~   ** Air System Named = CENTRAL SYSTEM did not converge for mass flow rate
   **   ~~~   ** Check values should be zero. Most Recent values listed first.
   **   ~~~   ** Demand-to-Supply interface mass flow rate check value iteration history trace: 7.638479E-002,7.638479E-002,7.638479E-002,7.638479E-002,7.638479E-002,7.638479E-002,7.638479E-002,7.638479E-002,7.638479E-002,7.638479E-002,
   **   ~~~   ** Supply-to-demand interface deck 1 mass flow rate check value iteration history trace: 7.638479E-002,7.638479E-002,7.638479E-002,7.638479E-002,7.638479E-002,7.638479E-002,7.638479E-002,7.638479E-002,7.638479E-002,7.638479E-002,
   **   ~~~   ** Air System Named = CENTRAL SYSTEM did not converge for energy
   **   ~~~   ** Check values should be zero. Most Recent values listed first.
   **   ~~~   ** Demand-to-Supply interface energy check value iteration history trace: 1513.267273,1513.267272,1513.267272,1513.267272,1513.267272,1513.267272,1513.267272,1513.267272,1513.267272,1513.267272,
   **   ~~~   ** Supply-to-demand interface deck 1 energy check value iteration history trace: 2301.363757,2301.363757,2301.363757,2301.363757,2301.363757,2301.363757,2301.363757,2301.363756,2301.363756,2301.363756,
   ** Warning ** SimHVAC: Maximum iterations (20) exceeded for all HVAC loops, at ANNUAL, 12/22 23:00 - 23:15
   **   ~~~   ** The solution for one or more of the Air Loop HVAC systems did not appear to converge
   **   ~~~   ** Air System Named = CENTRAL SYSTEM did not converge for mass flow rate
   **   ~~~   ** Check values should be zero. Most Recent values listed first.
   **   ~~~   ** Demand-to-Supply interface mass flow rate check value iteration history trace: 5.681322E-002,5.681322E-002,5.681322E-002,5.681322E-002,5.681322E-002,5.681322E-002,5.681322E-002,5.681322E-002,5.681322E-002,5.681322E-002,
   **   ~~~   ** Supply-to-demand interface deck 1 mass flow rate check value iteration history trace: 5.681322E-002,5.681322E-002,5.681322E-002,5.681322E-002,5.681322E-002,5.681322E-002,5.681322E-002,5.681322E-002,5.681322E-002,5.681322E-002,
   **   ~~~   ** Air System Named = CENTRAL SYSTEM did not converge for energy
   **   ~~~   ** Check values should be zero. Most Recent values listed first.
   **   ~~~   ** Demand-to-Supply interface energy check value iteration history trace: 1060.312473,1060.312473,1060.312473,1060.312473,1060.312473,1060.312473,1060.312473,1060.312473,1060.312472,1060.312472,
   **   ~~~   ** Supply-to-demand interface deck 1 energy check value iteration history trace: 1832.672097,1832.672097,1832.672097,1832.672096,1832.672096,1832.672096,1832.672096,1832.672096,1832.672096,1832.672096,
   ** Warning ** SimHVAC: Maximum iterations (20) exceeded for all HVAC loops, at ANNUAL, 12/28 13:00 - 13:08
   **   ~~~   ** The solution for one or more of the Air Loop HVAC systems did not appear to converge
   **   ~~~   ** Air System Named = CENTRAL SYSTEM did not converge for mass flow rate
   **   ~~~   ** Check values should be zero. Most Recent values listed first.
   **   ~~~   ** Demand-to-Supply interface mass flow rate check value iteration history trace: 4.012502E-002,4.012502E-002,4.012502E-002,4.012502E-002,4.012502E-002,4.012502E-002,4.012502E-002,4.012502E-002,4.012502E-002,4.012502E-002,
   **   ~~~   ** Supply-to-demand interface deck 1 mass flow rate check value iteration history trace: 4.012502E-002,4.012502E-002,4.012502E-002,4.012502E-002,4.012502E-002,4.012502E-002,4.012502E-002,4.012502E-002,4.012502E-002,4.012502E-002,
   **   ~~~   ** Air System Named = CENTRAL SYSTEM did not converge for energy
   **   ~~~   ** Check values should be zero. Most Recent values listed first.
   **   ~~~   ** Demand-to-Supply interface energy check value iteration history trace: 794.545745,794.545744,794.545744,794.545744,794.545744,794.545744,794.545744,794.545744,794.545744,794.545744,
   **   ~~~   ** Supply-to-demand interface deck 1 energy check value iteration history trace: 1335.719685,1335.719685,1335.719685,1335.719685,1335.719685,1335.719685,1335.719685,1335.719685,1335.719685,1335.719685,
   ************* Simulation Error Summary *************
   ** Warning ** The following Report Variables were requested but not generated -- check.rdd file
   **   ~~~   ** Either the IDF did not contain these elements, the variable name is misspelled,
   **   ~~~   ** or the requested variable is an advanced output which requires Output : Diagnostics, DisplayAdvancedReportVariables;
   ************* Key=*, VarName=BASEBOARD TOTAL HEATING ENERGY, Frequency=
   ************* Key=*, VarName=WATER HEATER NATURALGAS ENERGY, Frequency=
   ************* Key=*, VarName=COOLING COIL TOTAL HEATING ENERGY, Frequency=
   ************* There are 34 unused schedules in input.
   ************* There are 388 unused week schedules in input.
   ************* There are 396 unused day schedules in input.
   ************* Use Output:Diagnostics,DisplayUnusedSchedules; to see them.
   *************
   ************* ===== Recurring Error Summary =====
   ************* The following recurring error messages occurred.
   *************
   *************  ** Warning ** "TOTAL HOT WATER LOAD" - Target water temperature should be less than or equal to the hot water temperature error continues...
   *************  **   ~~~   **   This error occurred 60393 total times;
   *************  **   ~~~   **   during Warmup 0 times;
   *************  **   ~~~   **   during Sizing 0 times.
   *************  **   ~~~   **   Max=6.734989  Min=1.984887E-003
   *************
   *************
   ************* ===== Final Error Summary =====
   ************* The following error categories occurred.  Consider correcting or noting.
   ************* Nominally Unused Constructions
   ************* ..The nominally unused constructions warning is provided to alert you to potential conditions that can cause
   ************* ..extra time during simulation. Each construction is calculated by the algorithm indicated in the HeatBalanceAlgorithm
   ************* ..object. You may remove the constructions indicated (when you use the DisplayExtraWarnings option).
   *************
   ************* EnergyPlus Warmup Error Summary. During Warmup: 1 Warning; 0 Severe Errors.
   ************* EnergyPlus Sizing Error Summary. During Sizing: 4 Warning; 0 Severe Errors.
   ************* EnergyPlus Completed Successfully-- 60420 Warning; 0 Severe Errors; Elapsed Time=00hr 01min 30.40sec
