Program Version,EnergyPlus, Version 22.2.0-c249759bad, YMD=2023.09.01 14:56,
   ************* Beginning Zone Sizing Calculations
   ** Warning ** ProcessScheduleInput: Schedule:Constant="ALWAYS ON DISCRETE", Schedule Type Limits Name="ONOFF" not found -- will not be validated
   ** Warning ** Foundation:Kiva="KIVA FOUNDATION", no Interior Horizontal Insulation Material Name defined
   **   ~~~   ** Interior Horizontal Insulation Depth will not be used.
   ** Warning ** CheckUsedConstructions: There are 15 nominally unused constructions in input.
   **   ~~~   ** Each Unused construction is shown.
   ************* Construction=INTERIOR FLOOR
   ************* Construction=INTERIOR WINDOW
   ************* Construction=EXTERIOR DOOR
   ************* Construction=INTERIOR DOOR
   ************* Construction=GABLE CONSTRUCTION
   ************* Construction=CRAWL_FLOOR
   ************* Construction=INSULATED PIPE
   ************* Construction=PLAIN PIPE
   ************* Construction=TDD PIPE
   ************* Construction=TDD DOME
   ************* Construction=TDD DIFFUSER
   ************* Construction=CRAWL WALL
   ************* Construction=CEILING-FLOOR-LAYER
   ************* Construction=SLAB CONSTRUCTION W FULL R10 INSULATION
   ************* Construction=SLAB CONSTRUCTION W FULL R5 INSULATION
   ** Warning ** GetDXCoils: Coil:Heating:DX:SingleSpeed="DX_HEATING_COIL" curve values
   **   ~~~   ** ... Defrost Energy Input Ratio Function of Temperature Curve Name = DEFROSTEIR output is not equal to 1.0 (+ or - 10%) at rated conditions.
   **   ~~~   ** ... Curve output at rated conditions = 0.152
   ************* Beginning System Sizing Calculations
   ************* Beginning Plant Sizing Calculations
   ** Warning ** SizeDXCoil Coil:Cooling:DX:SingleSpeed DX_COOLING_COIL
   **   ~~~   ** ...Gross Rated Total Cooling Capacity [W] will be limited by the maximum rated volume flow per rated total capacity ratio.
   **   ~~~   ** ...DX coil volume flow rate ( m3/s ) = 0.408118
   **   ~~~   ** ...Requested capacity ( W ) = 6523.276
   **   ~~~   ** ...Requested flow/capacity ratio ( m3/s/W ) = 6.256E-005
   **   ~~~   ** ...Maximum flow/capacity ratio ( m3/s/W ) = 6.041E-005
   **   ~~~   ** ...Adjusted capacity ( W ) = 6755.805
   ** Warning ** Coil:WaterHeating:AirToWaterHeatPump:Wrapped "HEAT PUMP WATER HEATER EVAPORATOR": Rated air volume flow rate per watt of rated total water heating capacity is out of range
   **   ~~~   ** Min Rated Vol Flow Per Watt=[4.027E-005], Rated Vol Flow Per Watt=[1.386E-004], Max Rated Vol Flow Per Watt=[8.056E-005]. See Input-Output Reference Manual for valid range.
   ** Warning ** Water heater = WATER HEATER TANK:  Recovery Efficiency and Energy Factor could not be calculated during the test for standard ratings
   **   ~~~   ** Setpoint was never recovered and/or heater never turned on
   ** Warning ** Check input. Pump nominal power or motor efficiency is set to 0, for pump=MAINS PRESSURE
   ** Warning ** Output:Meter: invalid Key Name="ELECTRIC_RANGE:INTERIOREQUIPMENT:ELECTRICITY" - not found.
   ** Warning ** Output:Meter: invalid Key Name="ELECTRIC_DRYER:INTERIOREQUIPMENT:ELECTRICITY" - not found.
   ** Warning ** Output:Meter: invalid Key Name="HEATRECOVERY:ELECTRICITY" - not found.
   ** Warning ** Output:Meter: invalid Key Name="HEATING:NATURALGAS" - not found.
   ** Warning ** Output:Meter: invalid Key Name="WATERSYSTEMS:NATURALGAS" - not found.
   ** Warning ** Output:Meter: invalid Key Name="PROPANE:FACILITY" - not found.
   ** Warning ** Output:Meter: invalid Key Name="HEATING:PROPANE" - not found.
   ************* Testing Individual Branch Integrity
   ************* All Branches passed integrity testing
   ************* Testing Individual Supply Air Path Integrity
   ************* All Supply Air Paths passed integrity testing
   ************* Testing Individual Return Air Path Integrity
   ************* All Return Air Paths passed integrity testing
   ************* No node connection errors were found.
   ************* Beginning Simulation
   ** Warning ** AirflowNetwork::Solver::validate_distribution: Heat pump water heater is simulated along with an AirflowNetwork but is not included in the AirflowNetwork.
   ** Warning ** CalcEquipmentFlowRates: "TOTAL HOT WATER LOAD" - Target water temperature is greater than the hot water temperature by (1.65 C)
   **   ~~~   **  Environment=EXTREME_WINTER, at Simulation time=01/06 06:00 - 06:15
   **   ~~~   ** ...target water temperature     = 53.33 C
   **   ~~~   ** ...hot water temperature        = 51.69 C
   **   ~~~   ** ...Target water temperature should be less than or equal to the hot water temperature. Verify temperature setpoints and schedules.
   ** Warning ** SimHVAC: Maximum iterations (20) exceeded for all HVAC loops, at ANNUAL, 01/23 20:15 - 20:22
   **   ~~~   ** The solution for one or more of the Air Loop HVAC systems did not appear to converge
   **   ~~~   ** Air System Named = CENTRAL SYSTEM did not converge for mass flow rate
   **   ~~~   ** Check values should be zero. Most Recent values listed first.
   **   ~~~   ** Demand-to-Supply interface mass flow rate check value iteration history trace: 0.109660,0.109660,0.109660,0.109660,0.109660,0.109660,0.109660,0.109660,0.109660,0.109660,
   **   ~~~   ** Supply-to-demand interface deck 1 mass flow rate check value iteration history trace: 0.109660,0.109660,0.109660,0.109660,0.109660,0.109660,0.109660,0.109660,0.109660,0.109660,
   **   ~~~   ** Air System Named = CENTRAL SYSTEM did not converge for energy
   **   ~~~   ** Check values should be zero. Most Recent values listed first.
   **   ~~~   ** Demand-to-Supply interface energy check value iteration history trace: 2171.755553,2171.755553,2171.755553,2171.755553,2171.755553,2171.755553,2171.755552,2171.755552,2171.755552,2171.755552,
   **   ~~~   ** Supply-to-demand interface deck 1 energy check value iteration history trace: 3232.904483,3232.904482,3232.904482,3232.904482,3232.904482,3232.904482,3232.904481,3232.904481,3232.904481,3232.904481,
   ** Warning ** SimHVAC: Maximum iterations (20) exceeded for all HVAC loops, at ANNUAL, 02/25 18:15 - 18:30
   **   ~~~   ** The solution for one or more of the Air Loop HVAC systems did not appear to converge
   **   ~~~   ** Air System Named = CENTRAL SYSTEM did not converge for mass flow rate
   **   ~~~   ** Check values should be zero. Most Recent values listed first.
   **   ~~~   ** Demand-to-Supply interface mass flow rate check value iteration history trace: 0.106879,0.106879,0.106879,0.106879,0.106879,0.106879,0.106879,0.106879,0.106879,0.106879,
   **   ~~~   ** Supply-to-demand interface deck 1 mass flow rate check value iteration history trace: 0.106879,0.106879,0.106879,0.106879,0.106879,0.106879,0.106879,0.106879,0.106879,0.106879,
   **   ~~~   ** Air System Named = CENTRAL SYSTEM did not converge for energy
   **   ~~~   ** Check values should be zero. Most Recent values listed first.
   **   ~~~   ** Demand-to-Supply interface energy check value iteration history trace: 2116.752566,2116.752566,2116.752566,2116.752566,2116.752566,2116.752566,2116.752566,2116.752565,2116.752565,2116.752565,
   **   ~~~   ** Supply-to-demand interface deck 1 energy check value iteration history trace: 3299.791217,3299.791217,3299.791216,3299.791216,3299.791216,3299.791216,3299.791215,3299.791215,3299.791215,3299.791215,
   ** Warning ** SimHVAC: Maximum iterations (20) exceeded for all HVAC loops, at ANNUAL, 03/23 19:04 - 19:08
   **   ~~~   ** The solution for one or more of the Air Loop HVAC systems did not appear to converge
   **   ~~~   ** Air System Named = CENTRAL SYSTEM did not converge for mass flow rate
   **   ~~~   ** Check values should be zero. Most Recent values listed first.
   **   ~~~   ** Demand-to-Supply interface mass flow rate check value iteration history trace: 9.377393E-002,9.377393E-002,9.377393E-002,9.377393E-002,9.377393E-002,9.377393E-002,9.377393E-002,9.377393E-002,9.377393E-002,9.377393E-002,
   **   ~~~   ** Supply-to-demand interface deck 1 mass flow rate check value iteration history trace: 9.377393E-002,9.377393E-002,9.377393E-002,9.377393E-002,9.377393E-002,9.377393E-002,9.377393E-002,9.377393E-002,9.377393E-002,9.377393E-002,
   **   ~~~   ** Air System Named = CENTRAL SYSTEM did not converge for energy
   **   ~~~   ** Check values should be zero. Most Recent values listed first.
   **   ~~~   ** Demand-to-Supply interface energy check value iteration history trace: 1851.307373,1851.307372,1851.307372,1851.307372,1851.307372,1851.307372,1851.307372,1851.307372,1851.307372,1851.307372,
   **   ~~~   ** Supply-to-demand interface deck 1 energy check value iteration history trace: 3086.409176,3086.409176,3086.409175,3086.409175,3086.409175,3086.409175,3086.409175,3086.409175,3086.409175,3086.409174,
   ** Warning ** SimHVAC: Maximum iterations (20) exceeded for all HVAC loops, at ANNUAL, 04/11 07:30 - 07:35
   **   ~~~   ** The solution for one or more of the Air Loop HVAC systems did not appear to converge
   **   ~~~   ** Air System Named = CENTRAL SYSTEM did not converge for mass flow rate
   **   ~~~   ** Check values should be zero. Most Recent values listed first.
   **   ~~~   ** Demand-to-Supply interface mass flow rate check value iteration history trace: 6.611991E-002,6.611991E-002,6.611991E-002,6.611991E-002,6.611991E-002,6.611991E-002,6.611991E-002,6.611991E-002,6.611991E-002,6.611991E-002,
   **   ~~~   ** Supply-to-demand interface deck 1 mass flow rate check value iteration history trace: 6.611991E-002,6.611991E-002,6.611991E-002,6.611991E-002,6.611991E-002,6.611991E-002,6.611991E-002,6.611991E-002,6.611991E-002,6.611991E-002,
   **   ~~~   ** Air System Named = CENTRAL SYSTEM did not converge for energy
   **   ~~~   ** Check values should be zero. Most Recent values listed first.
   **   ~~~   ** Demand-to-Supply interface energy check value iteration history trace: 1300.615753,1300.615753,1300.615753,1300.615753,1300.615753,1300.615753,1300.615753,1300.615753,1300.615753,1300.615753,
   **   ~~~   ** Supply-to-demand interface deck 1 energy check value iteration history trace: 2373.336471,2373.336471,2373.336470,2373.336470,2373.336470,2373.336470,2373.336470,2373.336470,2373.336470,2373.336470,
   ** Warning ** SimHVAC: Maximum iterations (20) exceeded for all HVAC loops, at ANNUAL, 04/12 07:15 - 07:17
   **   ~~~   ** The solution for one or more of the Air Loop HVAC systems did not appear to converge
   **   ~~~   ** Air System Named = CENTRAL SYSTEM did not converge for mass flow rate
   **   ~~~   ** Check values should be zero. Most Recent values listed first.
   **   ~~~   ** Demand-to-Supply interface mass flow rate check value iteration history trace: 8.985882E-002,8.985882E-002,8.985882E-002,8.985882E-002,8.985882E-002,8.985882E-002,8.985882E-002,8.985882E-002,8.985882E-002,8.985882E-002,
   **   ~~~   ** Supply-to-demand interface deck 1 mass flow rate check value iteration history trace: 8.985882E-002,8.985882E-002,8.985882E-002,8.985882E-002,8.985882E-002,8.985882E-002,8.985882E-002,8.985882E-002,8.985882E-002,8.985882E-002,
   **   ~~~   ** Air System Named = CENTRAL SYSTEM did not converge for energy
   **   ~~~   ** Check values should be zero. Most Recent values listed first.
   **   ~~~   ** Demand-to-Supply interface energy check value iteration history trace: 1780.658317,1780.658317,1780.658317,1780.658317,1780.658317,1780.658317,1780.658317,1780.658317,1780.658317,1780.658317,
   **   ~~~   ** Supply-to-demand interface deck 1 energy check value iteration history trace: 3019.815103,3019.815103,3019.815102,3019.815102,3019.815102,3019.815102,3019.815102,3019.815102,3019.815102,3019.815102,
   ** Warning ** SimHVAC: Maximum iterations (20) exceeded for all HVAC loops, at ANNUAL, 05/18 17:23 - 17:30
   **   ~~~   ** The solution for one or more of the Air Loop HVAC systems did not appear to converge
   **   ~~~   ** Air System Named = CENTRAL SYSTEM did not converge for mass flow rate
   **   ~~~   ** Check values should be zero. Most Recent values listed first.
   **   ~~~   ** Demand-to-Supply interface mass flow rate check value iteration history trace: 0.192087,0.192087,0.192087,0.192087,0.192087,0.192087,0.192087,0.192087,0.192087,0.192087,
   **   ~~~   ** Supply-to-demand interface deck 1 mass flow rate check value iteration history trace: 0.192087,0.192087,0.192087,0.192087,0.192087,0.192087,0.192087,0.192087,0.192087,0.192087,
   **   ~~~   ** Air System Named = CENTRAL SYSTEM did not converge for energy
   **   ~~~   ** Check values should be zero. Most Recent values listed first.
   **   ~~~   ** Demand-to-Supply interface energy check value iteration history trace: 4557.525192,4557.525192,4557.525193,4557.525194,4557.525194,4557.525195,4557.525196,4557.525196,4557.525197,4557.525198,
   **   ~~~   ** Supply-to-demand interface deck 1 energy check value iteration history trace: 2339.646959,2339.646959,2339.646960,2339.646960,2339.646960,2339.646961,2339.646961,2339.646961,2339.646962,2339.646962,
   ** Warning ** SimHVAC: Maximum iterations (20) exceeded for all HVAC loops, at ANNUAL, 05/28 10:45 - 11:00
   **   ~~~   ** The solution for one or more of the Air Loop HVAC systems did not appear to converge
   **   ~~~   ** Air System Named = CENTRAL SYSTEM did not converge for mass flow rate
   **   ~~~   ** Check values should be zero. Most Recent values listed first.
   **   ~~~   ** Demand-to-Supply interface mass flow rate check value iteration history trace: 6.105023E-002,6.105023E-002,6.105023E-002,6.105023E-002,6.105023E-002,6.105023E-002,6.105023E-002,6.105023E-002,6.105023E-002,6.105023E-002,
   **   ~~~   ** Supply-to-demand interface deck 1 mass flow rate check value iteration history trace: 6.105023E-002,6.105023E-002,6.105023E-002,6.105023E-002,6.105023E-002,6.105023E-002,6.105023E-002,6.105023E-002,6.105023E-002,6.105023E-002,
   **   ~~~   ** Air System Named = CENTRAL SYSTEM did not converge for energy
   **   ~~~   ** Check values should be zero. Most Recent values listed first.
   **   ~~~   ** Demand-to-Supply interface energy check value iteration history trace: 1444.766464,1444.766464,1444.766464,1444.766464,1444.766464,1444.766464,1444.766464,1444.766464,1444.766464,1444.766465,
   **   ~~~   ** Supply-to-demand interface deck 1 energy check value iteration history trace: 795.275524,795.275524,795.275524,795.275524,795.275524,795.275524,795.275524,795.275524,795.275524,795.275524,
   ** Warning ** SimHVAC: Maximum iterations (20) exceeded for all HVAC loops, at ANNUAL, 10/20 07:15 - 07:30
   **   ~~~   ** The solution for one or more of the Air Loop HVAC systems did not appear to converge
   **   ~~~   ** Air System Named = CENTRAL SYSTEM did not converge for mass flow rate
   **   ~~~   ** Check values should be zero. Most Recent values listed first.
   **   ~~~   ** Demand-to-Supply interface mass flow rate check value iteration history trace: 7.891678E-002,7.891678E-002,7.891678E-002,7.891678E-002,7.891678E-002,7.891678E-002,7.891678E-002,7.891678E-002,7.891678E-002,7.891678E-002,
   **   ~~~   ** Supply-to-demand interface deck 1 mass flow rate check value iteration history trace: 7.891678E-002,7.891678E-002,7.891678E-002,7.891678E-002,7.891678E-002,7.891678E-002,7.891678E-002,7.891678E-002,7.891678E-002,7.891678E-002,
   **   ~~~   ** Air System Named = CENTRAL SYSTEM did not converge for energy
   **   ~~~   ** Check values should be zero. Most Recent values listed first.
   **   ~~~   ** Demand-to-Supply interface energy check value iteration history trace: 1559.268762,1559.268762,1559.268761,1559.268761,1559.268761,1559.268761,1559.268761,1559.268761,1559.268761,1559.268761,
   **   ~~~   ** Supply-to-demand interface deck 1 energy check value iteration history trace: 2652.979554,2652.979554,2652.979553,2652.979553,2652.979553,2652.979553,2652.979553,2652.979553,2652.979553,2652.979552,
   ** Warning ** SimHVAC: Maximum iterations (20) exceeded for all HVAC loops, at ANNUAL, 10/24 08:00 - 08:15
   **   ~~~   ** The solution for one or more of the Air Loop HVAC systems did not appear to converge
   **   ~~~   ** Air System Named = CENTRAL SYSTEM did not converge for mass flow rate
   **   ~~~   ** Check values should be zero. Most Recent values listed first.
   **   ~~~   ** Demand-to-Supply interface mass flow rate check value iteration history trace: 9.419690E-002,9.419690E-002,9.419690E-002,9.419690E-002,9.419690E-002,9.419690E-002,9.419690E-002,9.419690E-002,9.419690E-002,9.419690E-002,
   **   ~~~   ** Supply-to-demand interface deck 1 mass flow rate check value iteration history trace: 9.419690E-002,9.419690E-002,9.419690E-002,9.419690E-002,9.419690E-002,9.419690E-002,9.419690E-002,9.419690E-002,9.419690E-002,9.419690E-002,
   **   ~~~   ** Air System Named = CENTRAL SYSTEM did not converge for energy
   **   ~~~   ** Check values should be zero. Most Recent values listed first.
   **   ~~~   ** Demand-to-Supply interface energy check value iteration history trace: 1866.150010,1866.150010,1866.150010,1866.150010,1866.150009,1866.150009,1866.150009,1866.150009,1866.150009,1866.150009,
   **   ~~~   ** Supply-to-demand interface deck 1 energy check value iteration history trace: 3102.480426,3102.480426,3102.480426,3102.480425,3102.480425,3102.480425,3102.480425,3102.480425,3102.480424,3102.480424,
   ** Warning ** SimHVAC: Maximum iterations (20) exceeded for all HVAC loops, at ANNUAL, 11/12 11:05 - 11:10
   **   ~~~   ** The solution for one or more of the Air Loop HVAC systems did not appear to converge
   **   ~~~   ** Air System Named = CENTRAL SYSTEM did not converge for mass flow rate
   **   ~~~   ** Check values should be zero. Most Recent values listed first.
   **   ~~~   ** Demand-to-Supply interface mass flow rate check value iteration history trace: 6.830312E-002,6.830312E-002,6.830312E-002,6.830312E-002,6.830312E-002,6.830312E-002,6.830312E-002,6.830312E-002,6.830312E-002,6.830312E-002,
   **   ~~~   ** Supply-to-demand interface deck 1 mass flow rate check value iteration history trace: 6.830312E-002,6.830312E-002,6.830312E-002,6.830312E-002,6.830312E-002,6.830312E-002,6.830312E-002,6.830312E-002,6.830312E-002,6.830312E-002,
   **   ~~~   ** Air System Named = CENTRAL SYSTEM did not converge for energy
   **   ~~~   ** Check values should be zero. Most Recent values listed first.
   **   ~~~   ** Demand-to-Supply interface energy check value iteration history trace: 1337.092484,1337.092484,1337.092484,1337.092484,1337.092484,1337.092484,1337.092483,1337.092483,1337.092483,1337.092483,
   **   ~~~   ** Supply-to-demand interface deck 1 energy check value iteration history trace: 2402.975158,2402.975157,2402.975157,2402.975157,2402.975157,2402.975157,2402.975157,2402.975157,2402.975157,2402.975157,
   ** Warning ** SimHVAC: Maximum iterations (20) exceeded for all HVAC loops, at ANNUAL, 11/28 07:45 - 07:52
   **   ~~~   ** The solution for one or more of the Air Loop HVAC systems did not appear to converge
   **   ~~~   ** Air System Named = CENTRAL SYSTEM did not converge for mass flow rate
   **   ~~~   ** Check values should be zero. Most Recent values listed first.
   **   ~~~   ** Demand-to-Supply interface mass flow rate check value iteration history trace: 6.985785E-002,6.985785E-002,6.985785E-002,6.985785E-002,6.985785E-002,6.985785E-002,6.985785E-002,6.985785E-002,6.985785E-002,6.985785E-002,
   **   ~~~   ** Supply-to-demand interface deck 1 mass flow rate check value iteration history trace: 6.985785E-002,6.985785E-002,6.985785E-002,6.985785E-002,6.985785E-002,6.985785E-002,6.985785E-002,6.985785E-002,6.985785E-002,6.985785E-002,
   **   ~~~   ** Air System Named = CENTRAL SYSTEM did not converge for energy
   **   ~~~   ** Check values should be zero. Most Recent values listed first.
   **   ~~~   ** Demand-to-Supply interface energy check value iteration history trace: 1381.263103,1381.263103,1381.263103,1381.263103,1381.263103,1381.263103,1381.263103,1381.263103,1381.263103,1381.263103,
   **   ~~~   ** Supply-to-demand interface deck 1 energy check value iteration history trace: 2357.721524,2357.721524,2357.721524,2357.721524,2357.721524,2357.721524,2357.721524,2357.721524,2357.721523,2357.721523,
   ** Warning ** SimHVAC: Maximum iterations (20) exceeded for all HVAC loops, at ANNUAL, 12/18 18:53 - 19:00
   **   ~~~   ** The solution for one or more of the Air Loop HVAC systems did not appear to converge
   **   ~~~   ** Air System Named = CENTRAL SYSTEM did not converge for mass flow rate
   **   ~~~   ** Check values should be zero. Most Recent values listed first.
   **   ~~~   ** Demand-to-Supply interface mass flow rate check value iteration history trace: 8.557314E-002,8.557314E-002,8.557314E-002,8.557314E-002,8.557314E-002,8.557314E-002,8.557314E-002,8.557314E-002,8.557314E-002,8.557314E-002,
   **   ~~~   ** Supply-to-demand interface deck 1 mass flow rate check value iteration history trace: 8.557314E-002,8.557314E-002,8.557314E-002,8.557314E-002,8.557314E-002,8.557314E-002,8.557314E-002,8.557314E-002,8.557314E-002,8.557314E-002,
   **   ~~~   ** Air System Named = CENTRAL SYSTEM did not converge for energy
   **   ~~~   ** Check values should be zero. Most Recent values listed first.
   **   ~~~   ** Demand-to-Supply interface energy check value iteration history trace: 1695.227767,1695.227767,1695.227767,1695.227766,1695.227766,1695.227766,1695.227766,1695.227766,1695.227766,1695.227766,
   **   ~~~   ** Supply-to-demand interface deck 1 energy check value iteration history trace: 2818.515364,2818.515364,2818.515364,2818.515364,2818.515363,2818.515363,2818.515363,2818.515363,2818.515363,2818.515363,
   ** Warning ** SimHVAC: Maximum iterations (20) exceeded for all HVAC loops, at ANNUAL, 12/22 16:15 - 16:22
   **   ~~~   ** The solution for one or more of the Air Loop HVAC systems did not appear to converge
   **   ~~~   ** Air System Named = CENTRAL SYSTEM did not converge for mass flow rate
   **   ~~~   ** Check values should be zero. Most Recent values listed first.
   **   ~~~   ** Demand-to-Supply interface mass flow rate check value iteration history trace: 9.442708E-002,9.442708E-002,9.442708E-002,9.442708E-002,9.442708E-002,9.442708E-002,9.442708E-002,9.442708E-002,9.442708E-002,9.442708E-002,
   **   ~~~   ** Supply-to-demand interface deck 1 mass flow rate check value iteration history trace: 9.442708E-002,9.442708E-002,9.442708E-002,9.442708E-002,9.442708E-002,9.442708E-002,9.442708E-002,9.442708E-002,9.442708E-002,9.442708E-002,
   **   ~~~   ** Air System Named = CENTRAL SYSTEM did not converge for energy
   **   ~~~   ** Check values should be zero. Most Recent values listed first.
   **   ~~~   ** Demand-to-Supply interface energy check value iteration history trace: 1863.095870,1863.095870,1863.095870,1863.095870,1863.095870,1863.095869,1863.095869,1863.095869,1863.095869,1863.095869,
   **   ~~~   ** Supply-to-demand interface deck 1 energy check value iteration history trace: 2903.883713,2903.883712,2903.883712,2903.883712,2903.883712,2903.883712,2903.883712,2903.883711,2903.883711,2903.883711,
   ************* Simulation Error Summary *************
   ** Warning ** The following Report Variables were requested but not generated -- check.rdd file
   **   ~~~   ** Either the IDF did not contain these elements, the variable name is misspelled,
   **   ~~~   ** or the requested variable is an advanced output which requires Output : Diagnostics, DisplayAdvancedReportVariables;
   ************* Key=*, VarName=BASEBOARD TOTAL HEATING ENERGY, Frequency=
   ************* Key=*, VarName=WATER HEATER NATURALGAS ENERGY, Frequency=
   ************* Key=*, VarName=COOLING COIL TOTAL HEATING ENERGY, Frequency=
   ************* There are 34 unused schedules in input.
   ************* There are 388 unused week schedules in input.
   ************* There are 396 unused day schedules in input.
   ************* Use Output:Diagnostics,DisplayUnusedSchedules; to see them.
   *************
   ************* ===== Recurring Error Summary =====
   ************* The following recurring error messages occurred.
   *************
   *************  ** Warning ** "TOTAL HOT WATER LOAD" - Target water temperature should be less than or equal to the hot water temperature error continues...
   *************  **   ~~~   **   This error occurred 100567 total times;
   *************  **   ~~~   **   during Warmup 0 times;
   *************  **   ~~~   **   during Sizing 0 times.
   *************  **   ~~~   **   Max=9.917938  Min=5.963491E-005
   *************
   *************
   ************* ===== Final Error Summary =====
   ************* The following error categories occurred.  Consider correcting or noting.
   ************* Nominally Unused Constructions
   ************* ..The nominally unused constructions warning is provided to alert you to potential conditions that can cause
   ************* ..extra time during simulation. Each construction is calculated by the algorithm indicated in the HeatBalanceAlgorithm
   ************* ..object. You may remove the constructions indicated (when you use the DisplayExtraWarnings option).
   *************
   ************* EnergyPlus Warmup Error Summary. During Warmup: 1 Warning; 0 Severe Errors.
   ************* EnergyPlus Sizing Error Summary. During Sizing: 4 Warning; 0 Severe Errors.
   ************* EnergyPlus Completed Successfully-- 100598 Warning; 0 Severe Errors; Elapsed Time=00hr 05min 24.76sec
