Program Version,EnergyPlus, Version 22.2.0-c249759bad, YMD=2023.09.01 19:00,
   ************* Beginning Zone Sizing Calculations
   ** Warning ** ProcessScheduleInput: Schedule:Constant="ALWAYS ON DISCRETE", Schedule Type Limits Name="ONOFF" not found -- will not be validated
   ** Warning ** Foundation:Kiva="KIVA FOUNDATION", no Interior Horizontal Insulation Material Name defined
   **   ~~~   ** Interior Horizontal Insulation Depth will not be used.
   ** Warning ** CheckUsedConstructions: There are 15 nominally unused constructions in input.
   **   ~~~   ** Each Unused construction is shown.
   ************* Construction=INTERIOR FLOOR
   ************* Construction=INTERIOR WINDOW
   ************* Construction=EXTERIOR DOOR
   ************* Construction=INTERIOR DOOR
   ************* Construction=GABLE CONSTRUCTION
   ************* Construction=CRAWL_FLOOR
   ************* Construction=INSULATED PIPE
   ************* Construction=PLAIN PIPE
   ************* Construction=TDD PIPE
   ************* Construction=TDD DOME
   ************* Construction=TDD DIFFUSER
   ************* Construction=CRAWL WALL
   ************* Construction=CEILING-FLOOR-LAYER
   ************* Construction=SLAB CONSTRUCTION W FULL R10 INSULATION
   ************* Construction=SLAB CONSTRUCTION W FULL R5 INSULATION
   ** Warning ** GetDXCoils: Coil:Heating:DX:SingleSpeed="DX_HEATING_COIL" curve values
   **   ~~~   ** ... Defrost Energy Input Ratio Function of Temperature Curve Name = DEFROSTEIR output is not equal to 1.0 (+ or - 10%) at rated conditions.
   **   ~~~   ** ... Curve output at rated conditions = 0.152
   ************* Beginning System Sizing Calculations
   ************* Beginning Plant Sizing Calculations
   ** Warning ** Coil:WaterHeating:AirToWaterHeatPump:Wrapped "HEAT PUMP WATER HEATER EVAPORATOR": Rated air volume flow rate per watt of rated total water heating capacity is out of range
   **   ~~~   ** Min Rated Vol Flow Per Watt=[4.027E-005], Rated Vol Flow Per Watt=[1.510E-004], Max Rated Vol Flow Per Watt=[8.056E-005]. See Input-Output Reference Manual for valid range.
   ************* SizeFan: : Potential issue with equipment sizing for Fan:OnOff HEAT PUMP WATER HEATER FAN
   **   ~~~   ** User-Specified Maximum Flow Rate [m3/s] = 0.22653
   **   ~~~   ** differs from Design Size Maximum Flow Rate [m3/s] = 7.55250E-002
   **   ~~~   ** This may, or may not, indicate mismatched component sizes.
   **   ~~~   ** Verify that the value entered is intended and is consistent with other components.
   ** Warning ** Water heater = WATER HEATER TANK:  Recovery Efficiency and Energy Factor could not be calculated during the test for standard ratings
   **   ~~~   ** Setpoint was never recovered and/or heater never turned on
   ** Warning ** Check input. Pump nominal power or motor efficiency is set to 0, for pump=MAINS PRESSURE
   ** Warning ** Output:Meter: invalid Key Name="ELECTRIC_RANGE:INTERIOREQUIPMENT:ELECTRICITY" - not found.
   ** Warning ** Output:Meter: invalid Key Name="ELECTRIC_DRYER:INTERIOREQUIPMENT:ELECTRICITY" - not found.
   ** Warning ** Output:Meter: invalid Key Name="HEATRECOVERY:ELECTRICITY" - not found.
   ** Warning ** Output:Meter: invalid Key Name="HEATING:NATURALGAS" - not found.
   ** Warning ** Output:Meter: invalid Key Name="WATERSYSTEMS:NATURALGAS" - not found.
   ** Warning ** Output:Meter: invalid Key Name="PROPANE:FACILITY" - not found.
   ** Warning ** Output:Meter: invalid Key Name="HEATING:PROPANE" - not found.
   ************* Testing Individual Branch Integrity
   ************* All Branches passed integrity testing
   ************* Testing Individual Supply Air Path Integrity
   ************* All Supply Air Paths passed integrity testing
   ************* Testing Individual Return Air Path Integrity
   ************* All Return Air Paths passed integrity testing
   ************* No node connection errors were found.
   ************* Beginning Simulation
   ** Warning ** AirflowNetwork::Solver::validate_distribution: Heat pump water heater is simulated along with an AirflowNetwork but is not included in the AirflowNetwork.
   ** Warning ** CalcEquipmentFlowRates: "TOTAL HOT WATER LOAD" - Target water temperature is greater than the hot water temperature by (0.71 C)
   **   ~~~   **  Environment=EXTREME_WINTER, at Simulation time=12/22 03:45 - 04:00
   **   ~~~   ** ...target water temperature     = 53.33 C
   **   ~~~   ** ...hot water temperature        = 52.62 C
   **   ~~~   ** ...Target water temperature should be less than or equal to the hot water temperature. Verify temperature setpoints and schedules.
   ** Warning ** SimHVAC: Maximum iterations (20) exceeded for all HVAC loops, at ANNUAL, 01/26 13:15 - 13:20
   **   ~~~   ** The solution for one or more of the Air Loop HVAC systems did not appear to converge
   **   ~~~   ** Air System Named = CENTRAL SYSTEM did not converge for mass flow rate
   **   ~~~   ** Check values should be zero. Most Recent values listed first.
   **   ~~~   ** Demand-to-Supply interface mass flow rate check value iteration history trace: 6.261989E-002,6.261989E-002,6.261989E-002,6.261989E-002,6.261989E-002,6.261989E-002,6.261989E-002,6.261989E-002,6.261989E-002,6.261989E-002,
   **   ~~~   ** Supply-to-demand interface deck 1 mass flow rate check value iteration history trace: 6.261989E-002,6.261989E-002,6.261989E-002,6.261989E-002,6.261989E-002,6.261989E-002,6.261989E-002,6.261989E-002,6.261989E-002,6.261989E-002,
   **   ~~~   ** Air System Named = CENTRAL SYSTEM did not converge for energy
   **   ~~~   ** Check values should be zero. Most Recent values listed first.
   **   ~~~   ** Demand-to-Supply interface energy check value iteration history trace: 1240.947825,1240.947825,1240.947825,1240.947825,1240.947825,1240.947825,1240.947825,1240.947825,1240.947825,1240.947824,
   **   ~~~   ** Supply-to-demand interface deck 1 energy check value iteration history trace: 2109.335737,2109.335736,2109.335736,2109.335736,2109.335736,2109.335736,2109.335736,2109.335736,2109.335736,2109.335736,
   ** Warning ** SimHVAC: Maximum iterations (20) exceeded for all HVAC loops, at ANNUAL, 01/29 23:45 - 23:52
   **   ~~~   ** The solution for one or more of the Air Loop HVAC systems did not appear to converge
   **   ~~~   ** Air System Named = CENTRAL SYSTEM did not converge for mass flow rate
   **   ~~~   ** Check values should be zero. Most Recent values listed first.
   **   ~~~   ** Demand-to-Supply interface mass flow rate check value iteration history trace: 8.399377E-002,8.399377E-002,8.399377E-002,8.399377E-002,8.399377E-002,8.399377E-002,8.399377E-002,8.399377E-002,8.399377E-002,8.399377E-002,
   **   ~~~   ** Supply-to-demand interface deck 1 mass flow rate check value iteration history trace: 8.399377E-002,8.399377E-002,8.399377E-002,8.399377E-002,8.399377E-002,8.399377E-002,8.399377E-002,8.399377E-002,8.399377E-002,8.399377E-002,
   **   ~~~   ** Air System Named = CENTRAL SYSTEM did not converge for energy
   **   ~~~   ** Check values should be zero. Most Recent values listed first.
   **   ~~~   ** Demand-to-Supply interface energy check value iteration history trace: 1572.851164,1572.851164,1572.851164,1572.851164,1572.851164,1572.851164,1572.851163,1572.851163,1572.851163,1572.851163,
   **   ~~~   ** Supply-to-demand interface deck 1 energy check value iteration history trace: 2378.972173,2378.972173,2378.972173,2378.972173,2378.972172,2378.972172,2378.972172,2378.972172,2378.972172,2378.972172,
   ** Warning ** SimHVAC: Maximum iterations (20) exceeded for all HVAC loops, at ANNUAL, 01/30 19:15 - 19:30
   **   ~~~   ** The solution for one or more of the Air Loop HVAC systems did not appear to converge
   **   ~~~   ** Air System Named = CENTRAL SYSTEM did not converge for mass flow rate
   **   ~~~   ** Check values should be zero. Most Recent values listed first.
   **   ~~~   ** Demand-to-Supply interface mass flow rate check value iteration history trace: 6.761286E-002,6.761286E-002,6.761286E-002,6.761286E-002,6.761286E-002,6.761286E-002,6.761286E-002,6.761286E-002,6.761286E-002,6.761286E-002,
   **   ~~~   ** Supply-to-demand interface deck 1 mass flow rate check value iteration history trace: 6.761286E-002,6.761286E-002,6.761286E-002,6.761286E-002,6.761286E-002,6.761286E-002,6.761286E-002,6.761286E-002,6.761286E-002,6.761286E-002,
   **   ~~~   ** Air System Named = CENTRAL SYSTEM did not converge for energy
   **   ~~~   ** Check values should be zero. Most Recent values listed first.
   **   ~~~   ** Demand-to-Supply interface energy check value iteration history trace: 1336.659909,1336.659909,1336.659909,1336.659909,1336.659909,1336.659909,1336.659909,1336.659909,1336.659909,1336.659909,
   **   ~~~   ** Supply-to-demand interface deck 1 energy check value iteration history trace: 2263.967237,2263.967237,2263.967237,2263.967237,2263.967237,2263.967237,2263.967236,2263.967236,2263.967236,2263.967236,
   ** Warning ** SimHVAC: Maximum iterations (20) exceeded for all HVAC loops, at ANNUAL, 03/23 08:30 - 08:32
   **   ~~~   ** The solution for one or more of the Air Loop HVAC systems did not appear to converge
   **   ~~~   ** Air System Named = CENTRAL SYSTEM did not converge for mass flow rate
   **   ~~~   ** Check values should be zero. Most Recent values listed first.
   **   ~~~   ** Demand-to-Supply interface mass flow rate check value iteration history trace: 7.130548E-002,7.130548E-002,7.130548E-002,7.130548E-002,7.130548E-002,7.130548E-002,7.130548E-002,7.130548E-002,7.130548E-002,7.130548E-002,
   **   ~~~   ** Supply-to-demand interface deck 1 mass flow rate check value iteration history trace: 7.130548E-002,7.130548E-002,7.130548E-002,7.130548E-002,7.130548E-002,7.130548E-002,7.130548E-002,7.130548E-002,7.130548E-002,7.130548E-002,
   **   ~~~   ** Air System Named = CENTRAL SYSTEM did not converge for energy
   **   ~~~   ** Check values should be zero. Most Recent values listed first.
   **   ~~~   ** Demand-to-Supply interface energy check value iteration history trace: 1413.040590,1413.040590,1413.040590,1413.040590,1413.040590,1413.040590,1413.040590,1413.040590,1413.040590,1413.040590,
   **   ~~~   ** Supply-to-demand interface deck 1 energy check value iteration history trace: 2377.775870,2377.775869,2377.775869,2377.775869,2377.775869,2377.775869,2377.775869,2377.775869,2377.775869,2377.775869,
   ** Warning ** SimHVAC: Maximum iterations (20) exceeded for all HVAC loops, at ANNUAL, 03/28 23:23 - 23:30
   **   ~~~   ** The solution for one or more of the Air Loop HVAC systems did not appear to converge
   **   ~~~   ** Air System Named = CENTRAL SYSTEM did not converge for mass flow rate
   **   ~~~   ** Check values should be zero. Most Recent values listed first.
   **   ~~~   ** Demand-to-Supply interface mass flow rate check value iteration history trace: 4.862423E-002,4.862423E-002,4.862423E-002,4.862423E-002,4.862423E-002,4.862423E-002,4.862423E-002,4.862423E-002,4.862423E-002,4.862423E-002,
   **   ~~~   ** Supply-to-demand interface deck 1 mass flow rate check value iteration history trace: 4.862423E-002,4.862423E-002,4.862423E-002,4.862423E-002,4.862423E-002,4.862423E-002,4.862423E-002,4.862423E-002,4.862423E-002,4.862423E-002,
   **   ~~~   ** Air System Named = CENTRAL SYSTEM did not converge for energy
   **   ~~~   ** Check values should be zero. Most Recent values listed first.
   **   ~~~   ** Demand-to-Supply interface energy check value iteration history trace: 914.092055,914.092055,914.092055,914.092055,914.092055,914.092055,914.092055,914.092054,914.092054,914.092054,
   **   ~~~   ** Supply-to-demand interface deck 1 energy check value iteration history trace: 1635.294084,1635.294084,1635.294084,1635.294084,1635.294084,1635.294084,1635.294084,1635.294084,1635.294083,1635.294083,
   ** Warning ** SimHVAC: Maximum iterations (20) exceeded for all HVAC loops, at ANNUAL, 04/24 07:45 - 07:47
   **   ~~~   ** The solution for one or more of the Air Loop HVAC systems did not appear to converge
   **   ~~~   ** Air System Named = CENTRAL SYSTEM did not converge for mass flow rate
   **   ~~~   ** Check values should be zero. Most Recent values listed first.
   **   ~~~   ** Demand-to-Supply interface mass flow rate check value iteration history trace: 6.593285E-002,6.593285E-002,6.593285E-002,6.593285E-002,6.593285E-002,6.593285E-002,6.593285E-002,6.593285E-002,6.593285E-002,6.593285E-002,
   **   ~~~   ** Supply-to-demand interface deck 1 mass flow rate check value iteration history trace: 6.593285E-002,6.593285E-002,6.593285E-002,6.593285E-002,6.593285E-002,6.593285E-002,6.593285E-002,6.593285E-002,6.593285E-002,6.593285E-002,
   **   ~~~   ** Air System Named = CENTRAL SYSTEM did not converge for energy
   **   ~~~   ** Check values should be zero. Most Recent values listed first.
   **   ~~~   ** Demand-to-Supply interface energy check value iteration history trace: 1304.633476,1304.633476,1304.633476,1304.633476,1304.633476,1304.633476,1304.633476,1304.633476,1304.633476,1304.633476,
   **   ~~~   ** Supply-to-demand interface deck 1 energy check value iteration history trace: 2283.611094,2283.611094,2283.611094,2283.611094,2283.611094,2283.611094,2283.611093,2283.611093,2283.611093,2283.611093,
   ** Warning ** SimHVAC: Maximum iterations (20) exceeded for all HVAC loops, at ANNUAL, 05/17 01:00 - 01:08
   **   ~~~   ** The solution for one or more of the Air Loop HVAC systems did not appear to converge
   **   ~~~   ** Air System Named = CENTRAL SYSTEM did not converge for energy
   **   ~~~   ** Check values should be zero. Most Recent values listed first.
   **   ~~~   ** Demand-to-Supply interface energy check value iteration history trace: 192.218988,192.218988,192.218988,192.218988,192.218988,192.218988,192.218988,192.218988,192.218988,192.218988,
   **   ~~~   ** Supply-to-demand interface deck 1 energy check value iteration history trace: 88.708719,88.708719,88.708719,88.708719,88.708719,88.708719,88.708719,88.708719,88.708719,88.708719,
   ** Warning ** SimHVAC: Maximum iterations (20) exceeded for all HVAC loops, at ANNUAL, 05/20 09:54 - 09:57
   **   ~~~   ** The solution for one or more of the Air Loop HVAC systems did not appear to converge
   **   ~~~   ** Air System Named = CENTRAL SYSTEM did not converge for mass flow rate
   **   ~~~   ** Check values should be zero. Most Recent values listed first.
   **   ~~~   ** Demand-to-Supply interface mass flow rate check value iteration history trace: 0.154364,0.154364,0.154364,0.154364,0.154364,0.154364,0.154364,0.154364,0.154364,0.154364,
   **   ~~~   ** Supply-to-demand interface deck 1 mass flow rate check value iteration history trace: 0.154364,0.154364,0.154364,0.154364,0.154364,0.154364,0.154364,0.154364,0.154364,0.154364,
   **   ~~~   ** Air System Named = CENTRAL SYSTEM did not converge for energy
   **   ~~~   ** Check values should be zero. Most Recent values listed first.
   **   ~~~   ** Demand-to-Supply interface energy check value iteration history trace: 3656.518439,3656.518439,3656.518440,3656.518440,3656.518440,3656.518441,3656.518441,3656.518441,3656.518442,3656.518442,
   **   ~~~   ** Supply-to-demand interface deck 1 energy check value iteration history trace: 1790.955429,1790.955430,1790.955430,1790.955430,1790.955430,1790.955430,1790.955430,1790.955430,1790.955431,1790.955431,
   ** Warning ** SimHVAC: Maximum iterations (20) exceeded for all HVAC loops, at ANNUAL, 05/22 13:08 - 13:11
   **   ~~~   ** The solution for one or more of the Air Loop HVAC systems did not appear to converge
   **   ~~~   ** Air System Named = CENTRAL SYSTEM did not converge for mass flow rate
   **   ~~~   ** Check values should be zero. Most Recent values listed first.
   **   ~~~   ** Demand-to-Supply interface mass flow rate check value iteration history trace: 0.308433,0.308433,0.308433,0.308433,0.308433,0.308433,0.308433,0.308433,0.308433,0.308433,
   **   ~~~   ** Supply-to-demand interface deck 1 mass flow rate check value iteration history trace: 0.308433,0.308433,0.308433,0.308433,0.308433,0.308433,0.308433,0.308433,0.308433,0.308433,
   **   ~~~   ** Air System Named = CENTRAL SYSTEM did not converge for energy
   **   ~~~   ** Check values should be zero. Most Recent values listed first.
   **   ~~~   ** Demand-to-Supply interface energy check value iteration history trace: 7366.277343,7366.277343,7366.277344,7366.277345,7366.277345,7366.277346,7366.277347,7366.277347,7366.277348,7366.277349,
   **   ~~~   ** Supply-to-demand interface deck 1 energy check value iteration history trace: 3805.317448,3805.317448,3805.317448,3805.317449,3805.317449,3805.317449,3805.317450,3805.317450,3805.317451,3805.317451,
   ** Warning ** SimHVAC: Maximum iterations (20) exceeded for all HVAC loops, at ANNUAL, 05/23 13:23 - 13:30
   **   ~~~   ** The solution for one or more of the Air Loop HVAC systems did not appear to converge
   **   ~~~   ** Air System Named = CENTRAL SYSTEM did not converge for mass flow rate
   **   ~~~   ** Check values should be zero. Most Recent values listed first.
   **   ~~~   ** Demand-to-Supply interface mass flow rate check value iteration history trace: 0.105722,0.105722,0.105722,0.105722,0.105722,0.105722,0.105722,0.105722,0.105722,0.105722,
   **   ~~~   ** Supply-to-demand interface deck 1 mass flow rate check value iteration history trace: 0.105722,0.105722,0.105722,0.105722,0.105722,0.105722,0.105722,0.105722,0.105722,0.105722,
   **   ~~~   ** Air System Named = CENTRAL SYSTEM did not converge for energy
   **   ~~~   ** Check values should be zero. Most Recent values listed first.
   **   ~~~   ** Demand-to-Supply interface energy check value iteration history trace: 2483.242529,2483.242529,2483.242529,2483.242529,2483.242529,2483.242529,2483.242530,2483.242530,2483.242530,2483.242530,
   **   ~~~   ** Supply-to-demand interface deck 1 energy check value iteration history trace: 1277.782353,1277.782353,1277.782353,1277.782353,1277.782353,1277.782354,1277.782354,1277.782354,1277.782354,1277.782354,
   ** Warning ** SimHVAC: Maximum iterations (20) exceeded for all HVAC loops, at ANNUAL, 06/09 13:30 - 13:45
   **   ~~~   ** The solution for one or more of the Air Loop HVAC systems did not appear to converge
   **   ~~~   ** Air System Named = CENTRAL SYSTEM did not converge for mass flow rate
   **   ~~~   ** Check values should be zero. Most Recent values listed first.
   **   ~~~   ** Demand-to-Supply interface mass flow rate check value iteration history trace: 0.166961,0.166961,0.166961,0.166961,0.166961,0.166961,0.166961,0.166961,0.166961,0.166961,
   **   ~~~   ** Supply-to-demand interface deck 1 mass flow rate check value iteration history trace: 0.166961,0.166961,0.166961,0.166961,0.166961,0.166961,0.166961,0.166961,0.166961,0.166961,
   **   ~~~   ** Air System Named = CENTRAL SYSTEM did not converge for energy
   **   ~~~   ** Check values should be zero. Most Recent values listed first.
   **   ~~~   ** Demand-to-Supply interface energy check value iteration history trace: 4050.196736,4050.196736,4050.196736,4050.196737,4050.196737,4050.196737,4050.196737,4050.196738,4050.196738,4050.196738,
   **   ~~~   ** Supply-to-demand interface deck 1 energy check value iteration history trace: 1859.092676,1859.092676,1859.092676,1859.092676,1859.092676,1859.092676,1859.092676,1859.092676,1859.092676,1859.092677,
   ** Warning ** SimHVAC: Maximum iterations (20) exceeded for all HVAC loops, at ANNUAL, 10/06 11:15 - 11:30
   **   ~~~   ** The solution for one or more of the Air Loop HVAC systems did not appear to converge
   **   ~~~   ** Air System Named = CENTRAL SYSTEM did not converge for mass flow rate
   **   ~~~   ** Check values should be zero. Most Recent values listed first.
   **   ~~~   ** Demand-to-Supply interface mass flow rate check value iteration history trace: 5.128265E-002,5.128265E-002,5.128265E-002,5.128265E-002,5.128265E-002,5.128265E-002,5.128265E-002,5.128265E-002,5.128265E-002,5.128265E-002,
   **   ~~~   ** Supply-to-demand interface deck 1 mass flow rate check value iteration history trace: 5.128265E-002,5.128265E-002,5.128265E-002,5.128265E-002,5.128265E-002,5.128265E-002,5.128265E-002,5.128265E-002,5.128265E-002,5.128265E-002,
   **   ~~~   ** Air System Named = CENTRAL SYSTEM did not converge for energy
   **   ~~~   ** Check values should be zero. Most Recent values listed first.
   **   ~~~   ** Demand-to-Supply interface energy check value iteration history trace: 1015.417941,1015.417941,1015.417941,1015.417941,1015.417941,1015.417941,1015.417941,1015.417941,1015.417941,1015.417941,
   **   ~~~   ** Supply-to-demand interface deck 1 energy check value iteration history trace: 1834.557128,1834.557128,1834.557128,1834.557128,1834.557128,1834.557127,1834.557127,1834.557127,1834.557127,1834.557127,
   ** Warning ** SimHVAC: Maximum iterations (20) exceeded for all HVAC loops, at ANNUAL, 10/15 07:48 - 07:51
   **   ~~~   ** The solution for one or more of the Air Loop HVAC systems did not appear to converge
   **   ~~~   ** Air System Named = CENTRAL SYSTEM did not converge for mass flow rate
   **   ~~~   ** Check values should be zero. Most Recent values listed first.
   **   ~~~   ** Demand-to-Supply interface mass flow rate check value iteration history trace: 6.038182E-002,6.038182E-002,6.038182E-002,6.038182E-002,6.038182E-002,6.038182E-002,6.038182E-002,6.038182E-002,6.038182E-002,6.038182E-002,
   **   ~~~   ** Supply-to-demand interface deck 1 mass flow rate check value iteration history trace: 6.038182E-002,6.038182E-002,6.038182E-002,6.038182E-002,6.038182E-002,6.038182E-002,6.038182E-002,6.038182E-002,6.038182E-002,6.038182E-002,
   **   ~~~   ** Air System Named = CENTRAL SYSTEM did not converge for energy
   **   ~~~   ** Check values should be zero. Most Recent values listed first.
   **   ~~~   ** Demand-to-Supply interface energy check value iteration history trace: 1195.044593,1195.044593,1195.044593,1195.044593,1195.044593,1195.044593,1195.044593,1195.044593,1195.044592,1195.044592,
   **   ~~~   ** Supply-to-demand interface deck 1 energy check value iteration history trace: 2078.460972,2078.460972,2078.460972,2078.460972,2078.460972,2078.460972,2078.460971,2078.460971,2078.460971,2078.460971,
   ** Warning ** SimHVAC: Maximum iterations (20) exceeded for all HVAC loops, at ANNUAL, 11/11 11:00 - 11:08
   **   ~~~   ** The solution for one or more of the Air Loop HVAC systems did not appear to converge
   **   ~~~   ** Air System Named = CENTRAL SYSTEM did not converge for mass flow rate
   **   ~~~   ** Check values should be zero. Most Recent values listed first.
   **   ~~~   ** Demand-to-Supply interface mass flow rate check value iteration history trace: 6.344683E-002,6.344683E-002,6.344683E-002,6.344683E-002,6.344683E-002,6.344683E-002,6.344683E-002,6.344683E-002,6.344683E-002,6.344683E-002,
   **   ~~~   ** Supply-to-demand interface deck 1 mass flow rate check value iteration history trace: 6.344683E-002,6.344683E-002,6.344683E-002,6.344683E-002,6.344683E-002,6.344683E-002,6.344683E-002,6.344683E-002,6.344683E-002,6.344683E-002,
   **   ~~~   ** Air System Named = CENTRAL SYSTEM did not converge for energy
   **   ~~~   ** Check values should be zero. Most Recent values listed first.
   **   ~~~   ** Demand-to-Supply interface energy check value iteration history trace: 1253.935430,1253.935430,1253.935430,1253.935430,1253.935429,1253.935429,1253.935429,1253.935429,1253.935429,1253.935429,
   **   ~~~   ** Supply-to-demand interface deck 1 energy check value iteration history trace: 2154.473841,2154.473841,2154.473841,2154.473841,2154.473841,2154.473841,2154.473841,2154.473840,2154.473840,2154.473840,
   ************* Simulation Error Summary *************
   ** Warning ** The following Report Variables were requested but not generated -- check.rdd file
   **   ~~~   ** Either the IDF did not contain these elements, the variable name is misspelled,
   **   ~~~   ** or the requested variable is an advanced output which requires Output : Diagnostics, DisplayAdvancedReportVariables;
   ************* Key=*, VarName=BASEBOARD TOTAL HEATING ENERGY, Frequency=
   ************* Key=*, VarName=WATER HEATER NATURALGAS ENERGY, Frequency=
   ************* Key=*, VarName=COOLING COIL TOTAL HEATING ENERGY, Frequency=
   ************* There are 34 unused schedules in input.
   ************* There are 388 unused week schedules in input.
   ************* There are 396 unused day schedules in input.
   ************* Use Output:Diagnostics,DisplayUnusedSchedules; to see them.
   *************
   ************* ===== Recurring Error Summary =====
   ************* The following recurring error messages occurred.
   *************
   *************  ** Warning ** "TOTAL HOT WATER LOAD" - Target water temperature should be less than or equal to the hot water temperature error continues...
   *************  **   ~~~   **   This error occurred 55739 total times;
   *************  **   ~~~   **   during Warmup 0 times;
   *************  **   ~~~   **   during Sizing 0 times.
   *************  **   ~~~   **   Max=6.559787  Min=1.204844E-003
   *************
   *************  ** Warning ** SimHVAC: Exceeding Maximum iterations for all HVAC loops, during ANNUAL continues
   *************  **   ~~~   **   This error occurred 1 total times;
   *************  **   ~~~   **   during Warmup 0 times;
   *************  **   ~~~   **   during Sizing 0 times.
   *************
   *************
   ************* ===== Final Error Summary =====
   ************* The following error categories occurred.  Consider correcting or noting.
   ************* Nominally Unused Constructions
   ************* ..The nominally unused constructions warning is provided to alert you to potential conditions that can cause
   ************* ..extra time during simulation. Each construction is calculated by the algorithm indicated in the HeatBalanceAlgorithm
   ************* ..object. You may remove the constructions indicated (when you use the DisplayExtraWarnings option).
   *************
   ************* EnergyPlus Warmup Error Summary. During Warmup: 1 Warning; 0 Severe Errors.
   ************* EnergyPlus Sizing Error Summary. During Sizing: 4 Warning; 0 Severe Errors.
   ************* EnergyPlus Completed Successfully-- 55771 Warning; 0 Severe Errors; Elapsed Time=00hr 01min 22.06sec
