Program Version,EnergyPlus, Version 22.2.0-c249759bad, YMD=2023.08.31 13:04,
   ************* Beginning Zone Sizing Calculations
   ** Warning ** ProcessScheduleInput: Schedule:Constant="ALWAYS ON DISCRETE", Schedule Type Limits Name="ONOFF" not found -- will not be validated
   ** Warning ** Foundation:Kiva="KIVA FOUNDATION", no Interior Horizontal Insulation Material Name defined
   **   ~~~   ** Interior Horizontal Insulation Depth will not be used.
   ** Warning ** CheckUsedConstructions: There are 15 nominally unused constructions in input.
   **   ~~~   ** Each Unused construction is shown.
   ************* Construction=INTERIOR FLOOR
   ************* Construction=INTERIOR WINDOW
   ************* Construction=EXTERIOR DOOR
   ************* Construction=INTERIOR DOOR
   ************* Construction=GABLE CONSTRUCTION
   ************* Construction=CRAWL_FLOOR
   ************* Construction=INSULATED PIPE
   ************* Construction=PLAIN PIPE
   ************* Construction=TDD PIPE
   ************* Construction=TDD DOME
   ************* Construction=TDD DIFFUSER
   ************* Construction=CRAWL WALL
   ************* Construction=CEILING-FLOOR-LAYER
   ************* Construction=SLAB CONSTRUCTION W FULL R10 INSULATION
   ************* Construction=SLAB CONSTRUCTION W FULL R5 INSULATION
   ** Warning ** GetDXCoils: Coil:Heating:DX:SingleSpeed="DX_HEATING_COIL" curve values
   **   ~~~   ** ... Defrost Energy Input Ratio Function of Temperature Curve Name = DEFROSTEIR output is not equal to 1.0 (+ or - 10%) at rated conditions.
   **   ~~~   ** ... Curve output at rated conditions = 0.152
   ************* Beginning System Sizing Calculations
   ************* Beginning Plant Sizing Calculations
   ** Warning ** SizeDXCoil Coil:Cooling:DX:SingleSpeed DX_COOLING_COIL
   **   ~~~   ** ...Gross Rated Total Cooling Capacity [W] will be limited by the maximum rated volume flow per rated total capacity ratio.
   **   ~~~   ** ...DX coil volume flow rate ( m3/s ) = 0.341358
   **   ~~~   ** ...Requested capacity ( W ) = 4988.011
   **   ~~~   ** ...Requested flow/capacity ratio ( m3/s/W ) = 6.843E-005
   **   ~~~   ** ...Maximum flow/capacity ratio ( m3/s/W ) = 6.041E-005
   **   ~~~   ** ...Adjusted capacity ( W ) = 5650.702
   ** Warning ** Coil:WaterHeating:AirToWaterHeatPump:Wrapped "HEAT PUMP WATER HEATER EVAPORATOR": Rated air volume flow rate per watt of rated total water heating capacity is out of range
   **   ~~~   ** Min Rated Vol Flow Per Watt=[4.027E-005], Rated Vol Flow Per Watt=[1.386E-004], Max Rated Vol Flow Per Watt=[8.056E-005]. See Input-Output Reference Manual for valid range.
   ** Warning ** Water heater = WATER HEATER TANK:  Recovery Efficiency and Energy Factor could not be calculated during the test for standard ratings
   **   ~~~   ** Setpoint was never recovered and/or heater never turned on
   ** Warning ** Check input. Pump nominal power or motor efficiency is set to 0, for pump=MAINS PRESSURE
   ** Warning ** Output:Meter: invalid Key Name="ELECTRIC_RANGE:INTERIOREQUIPMENT:ELECTRICITY" - not found.
   ** Warning ** Output:Meter: invalid Key Name="ELECTRIC_DRYER:INTERIOREQUIPMENT:ELECTRICITY" - not found.
   ** Warning ** Output:Meter: invalid Key Name="HEATRECOVERY:ELECTRICITY" - not found.
   ** Warning ** Output:Meter: invalid Key Name="HEATING:NATURALGAS" - not found.
   ** Warning ** Output:Meter: invalid Key Name="WATERSYSTEMS:NATURALGAS" - not found.
   ** Warning ** Output:Meter: invalid Key Name="PROPANE:FACILITY" - not found.
   ** Warning ** Output:Meter: invalid Key Name="HEATING:PROPANE" - not found.
   ************* Testing Individual Branch Integrity
   ************* All Branches passed integrity testing
   ************* Testing Individual Supply Air Path Integrity
   ************* All Supply Air Paths passed integrity testing
   ************* Testing Individual Return Air Path Integrity
   ************* All Return Air Paths passed integrity testing
   ************* No node connection errors were found.
   ************* Beginning Simulation
   ** Warning ** AirflowNetwork::Solver::validate_distribution: Heat pump water heater is simulated along with an AirflowNetwork but is not included in the AirflowNetwork.
   ** Warning ** CalcEquipmentFlowRates: "TOTAL HOT WATER LOAD" - Target water temperature is greater than the hot water temperature by (1.66 C)
   **   ~~~   **  Environment=EXTREME_WINTER, at Simulation time=01/01 06:00 - 06:15
   **   ~~~   ** ...target water temperature     = 53.33 C
   **   ~~~   ** ...hot water temperature        = 51.68 C
   **   ~~~   ** ...Target water temperature should be less than or equal to the hot water temperature. Verify temperature setpoints and schedules.
   ** Warning ** SimHVAC: Maximum iterations (20) exceeded for all HVAC loops, at ANNUAL, 01/01 11:45 - 11:49
   **   ~~~   ** The solution for one or more of the Air Loop HVAC systems did not appear to converge
   **   ~~~   ** Air System Named = CENTRAL SYSTEM did not converge for mass flow rate
   **   ~~~   ** Check values should be zero. Most Recent values listed first.
   **   ~~~   ** Demand-to-Supply interface mass flow rate check value iteration history trace: 8.567014E-002,8.567014E-002,8.567014E-002,8.567014E-002,8.567014E-002,8.567014E-002,8.567014E-002,8.567014E-002,8.567014E-002,8.567014E-002,
   **   ~~~   ** Supply-to-demand interface deck 1 mass flow rate check value iteration history trace: 8.567014E-002,8.567014E-002,8.567014E-002,8.567014E-002,8.567014E-002,8.567014E-002,8.567014E-002,8.567014E-002,8.567014E-002,8.567014E-002,
   **   ~~~   ** Air System Named = CENTRAL SYSTEM did not converge for energy
   **   ~~~   ** Check values should be zero. Most Recent values listed first.
   **   ~~~   ** Demand-to-Supply interface energy check value iteration history trace: 1697.540757,1697.540755,1697.540753,1697.540750,1697.540748,1697.540746,1697.540743,1697.540741,1697.540739,1697.540737,
   **   ~~~   ** Supply-to-demand interface deck 1 energy check value iteration history trace: 2633.769865,2633.769862,2633.769858,2633.769855,2633.769851,2633.769848,2633.769844,2633.769841,2633.769837,2633.769833,
   ** Warning ** SimHVAC: Maximum iterations (20) exceeded for all HVAC loops, at ANNUAL, 02/14 20:15 - 20:22
   **   ~~~   ** The solution for one or more of the Air Loop HVAC systems did not appear to converge
   **   ~~~   ** Air System Named = CENTRAL SYSTEM did not converge for mass flow rate
   **   ~~~   ** Check values should be zero. Most Recent values listed first.
   **   ~~~   ** Demand-to-Supply interface mass flow rate check value iteration history trace: 9.039924E-002,9.039924E-002,9.039924E-002,9.039924E-002,9.039924E-002,9.039924E-002,9.039924E-002,9.039924E-002,9.039923E-002,9.039923E-002,
   **   ~~~   ** Supply-to-demand interface deck 1 mass flow rate check value iteration history trace: 9.039924E-002,9.039924E-002,9.039924E-002,9.039924E-002,9.039924E-002,9.039924E-002,9.039924E-002,9.039924E-002,9.039923E-002,9.039923E-002,
   **   ~~~   ** Air System Named = CENTRAL SYSTEM did not converge for energy
   **   ~~~   ** Check values should be zero. Most Recent values listed first.
   **   ~~~   ** Demand-to-Supply interface energy check value iteration history trace: 1787.620026,1787.620024,1787.620023,1787.620021,1787.620020,1787.620018,1787.620017,1787.620015,1787.620014,1787.620013,
   **   ~~~   ** Supply-to-demand interface deck 1 energy check value iteration history trace: 2988.827377,2988.827374,2988.827372,2988.827369,2988.827367,2988.827365,2988.827362,2988.827360,2988.827357,2988.827355,
   ** Warning ** SimHVAC: Maximum iterations (20) exceeded for all HVAC loops, at ANNUAL, 02/21 20:53 - 21:00
   **   ~~~   ** The solution for one or more of the Air Loop HVAC systems did not appear to converge
   **   ~~~   ** Air System Named = CENTRAL SYSTEM did not converge for mass flow rate
   **   ~~~   ** Check values should be zero. Most Recent values listed first.
   **   ~~~   ** Demand-to-Supply interface mass flow rate check value iteration history trace: 7.807429E-002,7.807429E-002,7.807429E-002,7.807429E-002,7.807429E-002,7.807429E-002,7.807429E-002,7.807429E-002,7.807429E-002,7.807429E-002,
   **   ~~~   ** Supply-to-demand interface deck 1 mass flow rate check value iteration history trace: 7.807429E-002,7.807429E-002,7.807429E-002,7.807429E-002,7.807429E-002,7.807429E-002,7.807429E-002,7.807429E-002,7.807429E-002,7.807429E-002,
   **   ~~~   ** Air System Named = CENTRAL SYSTEM did not converge for energy
   **   ~~~   ** Check values should be zero. Most Recent values listed first.
   **   ~~~   ** Demand-to-Supply interface energy check value iteration history trace: 1534.563797,1534.563796,1534.563795,1534.563794,1534.563794,1534.563793,1534.563792,1534.563791,1534.563790,1534.563789,
   **   ~~~   ** Supply-to-demand interface deck 1 energy check value iteration history trace: 2613.355676,2613.355675,2613.355673,2613.355672,2613.355670,2613.355669,2613.355667,2613.355666,2613.355664,2613.355663,
   ** Warning ** SimHVAC: Maximum iterations (20) exceeded for all HVAC loops, at ANNUAL, 03/19 10:30 - 10:45
   **   ~~~   ** The solution for one or more of the Air Loop HVAC systems did not appear to converge
   **   ~~~   ** Air System Named = CENTRAL SYSTEM did not converge for mass flow rate
   **   ~~~   ** Check values should be zero. Most Recent values listed first.
   **   ~~~   ** Demand-to-Supply interface mass flow rate check value iteration history trace: 8.648110E-002,8.648110E-002,8.648110E-002,8.648110E-002,8.648110E-002,8.648110E-002,8.648110E-002,8.648110E-002,8.648110E-002,8.648110E-002,
   **   ~~~   ** Supply-to-demand interface deck 1 mass flow rate check value iteration history trace: 8.648110E-002,8.648110E-002,8.648110E-002,8.648110E-002,8.648110E-002,8.648110E-002,8.648110E-002,8.648110E-002,8.648110E-002,8.648110E-002,
   **   ~~~   ** Air System Named = CENTRAL SYSTEM did not converge for energy
   **   ~~~   ** Check values should be zero. Most Recent values listed first.
   **   ~~~   ** Demand-to-Supply interface energy check value iteration history trace: 1713.799825,1713.799824,1713.799823,1713.799822,1713.799820,1713.799819,1713.799818,1713.799817,1713.799816,1713.799815,
   **   ~~~   ** Supply-to-demand interface deck 1 energy check value iteration history trace: 2960.341939,2960.341938,2960.341936,2960.341934,2960.341932,2960.341930,2960.341928,2960.341927,2960.341925,2960.341923,
   ** Warning ** SimHVAC: Maximum iterations (20) exceeded for all HVAC loops, at ANNUAL, 03/26 09:36 - 09:39
   **   ~~~   ** The solution for one or more of the Air Loop HVAC systems did not appear to converge
   **   ~~~   ** Air System Named = CENTRAL SYSTEM did not converge for mass flow rate
   **   ~~~   ** Check values should be zero. Most Recent values listed first.
   **   ~~~   ** Demand-to-Supply interface mass flow rate check value iteration history trace: 8.299519E-002,8.299519E-002,8.299519E-002,8.299519E-002,8.299519E-002,8.299519E-002,8.299519E-002,8.299519E-002,8.299519E-002,8.299519E-002,
   **   ~~~   ** Supply-to-demand interface deck 1 mass flow rate check value iteration history trace: 8.299519E-002,8.299519E-002,8.299519E-002,8.299519E-002,8.299519E-002,8.299519E-002,8.299519E-002,8.299519E-002,8.299519E-002,8.299519E-002,
   **   ~~~   ** Air System Named = CENTRAL SYSTEM did not converge for energy
   **   ~~~   ** Check values should be zero. Most Recent values listed first.
   **   ~~~   ** Demand-to-Supply interface energy check value iteration history trace: 1644.730385,1644.730385,1644.730384,1644.730383,1644.730382,1644.730381,1644.730380,1644.730380,1644.730379,1644.730378,
   **   ~~~   ** Supply-to-demand interface deck 1 energy check value iteration history trace: 2878.971305,2878.971304,2878.971302,2878.971301,2878.971299,2878.971298,2878.971297,2878.971295,2878.971294,2878.971292,
   ** Warning ** SimHVAC: Maximum iterations (20) exceeded for all HVAC loops, at ANNUAL, 03/30 07:45 - 08:00
   **   ~~~   ** The solution for one or more of the Air Loop HVAC systems did not appear to converge
   **   ~~~   ** Air System Named = CENTRAL SYSTEM did not converge for mass flow rate
   **   ~~~   ** Check values should be zero. Most Recent values listed first.
   **   ~~~   ** Demand-to-Supply interface mass flow rate check value iteration history trace: 7.620537E-002,7.620537E-002,7.620537E-002,7.620537E-002,7.620537E-002,7.620537E-002,7.620537E-002,7.620537E-002,7.620537E-002,7.620537E-002,
   **   ~~~   ** Supply-to-demand interface deck 1 mass flow rate check value iteration history trace: 7.620537E-002,7.620537E-002,7.620537E-002,7.620537E-002,7.620537E-002,7.620537E-002,7.620537E-002,7.620537E-002,7.620537E-002,7.620537E-002,
   **   ~~~   ** Air System Named = CENTRAL SYSTEM did not converge for energy
   **   ~~~   ** Check values should be zero. Most Recent values listed first.
   **   ~~~   ** Demand-to-Supply interface energy check value iteration history trace: 1501.161581,1501.161580,1501.161579,1501.161577,1501.161576,1501.161575,1501.161574,1501.161572,1501.161571,1501.161570,
   **   ~~~   ** Supply-to-demand interface deck 1 energy check value iteration history trace: 2610.219856,2610.219854,2610.219852,2610.219849,2610.219847,2610.219845,2610.219843,2610.219840,2610.219838,2610.219836,
   ** Warning ** SimHVAC: Maximum iterations (20) exceeded for all HVAC loops, at ANNUAL, 04/16 09:48 - 09:51
   **   ~~~   ** The solution for one or more of the Air Loop HVAC systems did not appear to converge
   **   ~~~   ** Air System Named = CENTRAL SYSTEM did not converge for mass flow rate
   **   ~~~   ** Check values should be zero. Most Recent values listed first.
   **   ~~~   ** Demand-to-Supply interface mass flow rate check value iteration history trace: 8.368670E-002,8.368670E-002,8.368670E-002,8.368670E-002,8.368670E-002,8.368670E-002,8.368670E-002,8.368670E-002,8.368670E-002,8.368670E-002,
   **   ~~~   ** Supply-to-demand interface deck 1 mass flow rate check value iteration history trace: 8.368670E-002,8.368670E-002,8.368670E-002,8.368670E-002,8.368670E-002,8.368670E-002,8.368670E-002,8.368670E-002,8.368670E-002,8.368670E-002,
   **   ~~~   ** Air System Named = CENTRAL SYSTEM did not converge for energy
   **   ~~~   ** Check values should be zero. Most Recent values listed first.
   **   ~~~   ** Demand-to-Supply interface energy check value iteration history trace: 1658.399566,1658.399565,1658.399564,1658.399563,1658.399562,1658.399561,1658.399560,1658.399559,1658.399558,1658.399557,
   **   ~~~   ** Supply-to-demand interface deck 1 energy check value iteration history trace: 2894.147847,2894.147845,2894.147844,2894.147842,2894.147840,2894.147838,2894.147837,2894.147835,2894.147833,2894.147831,
   ** Warning ** SimHVAC: Maximum iterations (20) exceeded for all HVAC loops, at ANNUAL, 05/06 08:30 - 08:45
   **   ~~~   ** The solution for one or more of the Air Loop HVAC systems did not appear to converge
   **   ~~~   ** Air System Named = CENTRAL SYSTEM did not converge for mass flow rate
   **   ~~~   ** Check values should be zero. Most Recent values listed first.
   **   ~~~   ** Demand-to-Supply interface mass flow rate check value iteration history trace: 7.809305E-002,7.809305E-002,7.809305E-002,7.809305E-002,7.809305E-002,7.809305E-002,7.809305E-002,7.809305E-002,7.809305E-002,7.809305E-002,
   **   ~~~   ** Supply-to-demand interface deck 1 mass flow rate check value iteration history trace: 7.809305E-002,7.809305E-002,7.809305E-002,7.809305E-002,7.809305E-002,7.809305E-002,7.809305E-002,7.809305E-002,7.809305E-002,7.809305E-002,
   **   ~~~   ** Air System Named = CENTRAL SYSTEM did not converge for energy
   **   ~~~   ** Check values should be zero. Most Recent values listed first.
   **   ~~~   ** Demand-to-Supply interface energy check value iteration history trace: 1547.435420,1547.435419,1547.435418,1547.435416,1547.435415,1547.435414,1547.435412,1547.435411,1547.435410,1547.435408,
   **   ~~~   ** Supply-to-demand interface deck 1 energy check value iteration history trace: 2694.857569,2694.857566,2694.857564,2694.857562,2694.857559,2694.857557,2694.857555,2694.857552,2694.857550,2694.857548,
   ** Warning ** SimHVAC: Maximum iterations (20) exceeded for all HVAC loops, at ANNUAL, 05/09 07:15 - 07:20
   **   ~~~   ** The solution for one or more of the Air Loop HVAC systems did not appear to converge
   **   ~~~   ** Air System Named = CENTRAL SYSTEM did not converge for mass flow rate
   **   ~~~   ** Check values should be zero. Most Recent values listed first.
   **   ~~~   ** Demand-to-Supply interface mass flow rate check value iteration history trace: 8.400156E-002,8.400156E-002,8.400156E-002,8.400156E-002,8.400156E-002,8.400156E-002,8.400156E-002,8.400156E-002,8.400156E-002,8.400156E-002,
   **   ~~~   ** Supply-to-demand interface deck 1 mass flow rate check value iteration history trace: 8.400156E-002,8.400156E-002,8.400156E-002,8.400156E-002,8.400156E-002,8.400156E-002,8.400156E-002,8.400156E-002,8.400156E-002,8.400156E-002,
   **   ~~~   ** Air System Named = CENTRAL SYSTEM did not converge for energy
   **   ~~~   ** Check values should be zero. Most Recent values listed first.
   **   ~~~   ** Demand-to-Supply interface energy check value iteration history trace: 1664.528275,1664.528273,1664.528271,1664.528269,1664.528268,1664.528266,1664.528264,1664.528262,1664.528260,1664.528259,
   **   ~~~   ** Supply-to-demand interface deck 1 energy check value iteration history trace: 2857.837673,2857.837670,2857.837667,2857.837664,2857.837661,2857.837658,2857.837655,2857.837652,2857.837649,2857.837645,
   ** Warning ** SimHVAC: Maximum iterations (20) exceeded for all HVAC loops, at ANNUAL, 05/11 06:45 - 07:00
   **   ~~~   ** The solution for one or more of the Air Loop HVAC systems did not appear to converge
   **   ~~~   ** Air System Named = CENTRAL SYSTEM did not converge for mass flow rate
   **   ~~~   ** Check values should be zero. Most Recent values listed first.
   **   ~~~   ** Demand-to-Supply interface mass flow rate check value iteration history trace: 7.821543E-002,7.821543E-002,7.821543E-002,7.821543E-002,7.821542E-002,7.821542E-002,7.821542E-002,7.821542E-002,7.821542E-002,7.821542E-002,
   **   ~~~   ** Supply-to-demand interface deck 1 mass flow rate check value iteration history trace: 7.821543E-002,7.821543E-002,7.821543E-002,7.821543E-002,7.821542E-002,7.821542E-002,7.821542E-002,7.821542E-002,7.821542E-002,7.821542E-002,
   **   ~~~   ** Air System Named = CENTRAL SYSTEM did not converge for energy
   **   ~~~   ** Check values should be zero. Most Recent values listed first.
   **   ~~~   ** Demand-to-Supply interface energy check value iteration history trace: 1547.209332,1547.209331,1547.209330,1547.209329,1547.209328,1547.209327,1547.209326,1547.209325,1547.209324,1547.209322,
   **   ~~~   ** Supply-to-demand interface deck 1 energy check value iteration history trace: 2702.072122,2702.072120,2702.072119,2702.072117,2702.072115,2702.072113,2702.072111,2702.072109,2702.072107,2702.072105,
   ** Warning ** SimHVAC: Maximum iterations (20) exceeded for all HVAC loops, at ANNUAL, 05/29 07:00 - 07:15
   **   ~~~   ** The solution for one or more of the Air Loop HVAC systems did not appear to converge
   **   ~~~   ** Air System Named = CENTRAL SYSTEM did not converge for mass flow rate
   **   ~~~   ** Check values should be zero. Most Recent values listed first.
   **   ~~~   ** Demand-to-Supply interface mass flow rate check value iteration history trace: 7.049005E-002,7.049005E-002,7.049005E-002,7.049005E-002,7.049005E-002,7.049005E-002,7.049005E-002,7.049005E-002,7.049005E-002,7.049005E-002,
   **   ~~~   ** Supply-to-demand interface deck 1 mass flow rate check value iteration history trace: 7.049005E-002,7.049005E-002,7.049005E-002,7.049005E-002,7.049005E-002,7.049005E-002,7.049005E-002,7.049005E-002,7.049005E-002,7.049005E-002,
   **   ~~~   ** Air System Named = CENTRAL SYSTEM did not converge for energy
   **   ~~~   ** Check values should be zero. Most Recent values listed first.
   **   ~~~   ** Demand-to-Supply interface energy check value iteration history trace: 1396.809515,1396.809514,1396.809512,1396.809511,1396.809510,1396.809509,1396.809508,1396.809507,1396.809505,1396.809504,
   **   ~~~   ** Supply-to-demand interface deck 1 energy check value iteration history trace: 2469.113836,2469.113834,2469.113832,2469.113830,2469.113828,2469.113826,2469.113824,2469.113822,2469.113820,2469.113818,
   ** Warning ** SimHVAC: Maximum iterations (20) exceeded for all HVAC loops, at ANNUAL, 09/05 07:34 - 07:38
   **   ~~~   ** The solution for one or more of the Air Loop HVAC systems did not appear to converge
   **   ~~~   ** Air System Named = CENTRAL SYSTEM did not converge for mass flow rate
   **   ~~~   ** Check values should be zero. Most Recent values listed first.
   **   ~~~   ** Demand-to-Supply interface mass flow rate check value iteration history trace: 6.418816E-002,6.418816E-002,6.418816E-002,6.418816E-002,6.418816E-002,6.418816E-002,6.418816E-002,6.418816E-002,6.418816E-002,6.418816E-002,
   **   ~~~   ** Supply-to-demand interface deck 1 mass flow rate check value iteration history trace: 6.418816E-002,6.418816E-002,6.418816E-002,6.418816E-002,6.418816E-002,6.418816E-002,6.418816E-002,6.418816E-002,6.418816E-002,6.418816E-002,
   **   ~~~   ** Air System Named = CENTRAL SYSTEM did not converge for energy
   **   ~~~   ** Check values should be zero. Most Recent values listed first.
   **   ~~~   ** Demand-to-Supply interface energy check value iteration history trace: 1263.589311,1263.589310,1263.589309,1263.589308,1263.589308,1263.589307,1263.589306,1263.589305,1263.589304,1263.589303,
   **   ~~~   ** Supply-to-demand interface deck 1 energy check value iteration history trace: 2225.471783,2225.471782,2225.471780,2225.471779,2225.471777,2225.471776,2225.471774,2225.471773,2225.471772,2225.471770,
   ** Warning ** SimHVAC: Maximum iterations (20) exceeded for all HVAC loops, at ANNUAL, 09/28 07:08 - 07:15
   **   ~~~   ** The solution for one or more of the Air Loop HVAC systems did not appear to converge
   **   ~~~   ** Air System Named = CENTRAL SYSTEM did not converge for mass flow rate
   **   ~~~   ** Check values should be zero. Most Recent values listed first.
   **   ~~~   ** Demand-to-Supply interface mass flow rate check value iteration history trace: 7.395224E-002,7.395224E-002,7.395224E-002,7.395224E-002,7.395224E-002,7.395224E-002,7.395224E-002,7.395224E-002,7.395224E-002,7.395224E-002,
   **   ~~~   ** Supply-to-demand interface deck 1 mass flow rate check value iteration history trace: 7.395224E-002,7.395224E-002,7.395224E-002,7.395224E-002,7.395224E-002,7.395224E-002,7.395224E-002,7.395224E-002,7.395224E-002,7.395224E-002,
   **   ~~~   ** Air System Named = CENTRAL SYSTEM did not converge for energy
   **   ~~~   ** Check values should be zero. Most Recent values listed first.
   **   ~~~   ** Demand-to-Supply interface energy check value iteration history trace: 1465.206957,1465.206955,1465.206953,1465.206951,1465.206949,1465.206947,1465.206945,1465.206943,1465.206941,1465.206939,
   **   ~~~   ** Supply-to-demand interface deck 1 energy check value iteration history trace: 2562.556091,2562.556087,2562.556083,2562.556080,2562.556076,2562.556073,2562.556069,2562.556065,2562.556062,2562.556058,
   ** Warning ** SimHVAC: Maximum iterations (20) exceeded for all HVAC loops, at ANNUAL, 10/15 10:35 - 10:40
   **   ~~~   ** The solution for one or more of the Air Loop HVAC systems did not appear to converge
   **   ~~~   ** Air System Named = CENTRAL SYSTEM did not converge for mass flow rate
   **   ~~~   ** Check values should be zero. Most Recent values listed first.
   **   ~~~   ** Demand-to-Supply interface mass flow rate check value iteration history trace: 7.215249E-002,7.215249E-002,7.215249E-002,7.215249E-002,7.215249E-002,7.215249E-002,7.215249E-002,7.215249E-002,7.215249E-002,7.215249E-002,
   **   ~~~   ** Supply-to-demand interface deck 1 mass flow rate check value iteration history trace: 7.215249E-002,7.215249E-002,7.215249E-002,7.215249E-002,7.215249E-002,7.215249E-002,7.215249E-002,7.215249E-002,7.215249E-002,7.215249E-002,
   **   ~~~   ** Air System Named = CENTRAL SYSTEM did not converge for energy
   **   ~~~   ** Check values should be zero. Most Recent values listed first.
   **   ~~~   ** Demand-to-Supply interface energy check value iteration history trace: 1412.302045,1412.302044,1412.302043,1412.302042,1412.302041,1412.302040,1412.302039,1412.302038,1412.302037,1412.302036,
   **   ~~~   ** Supply-to-demand interface deck 1 energy check value iteration history trace: 2504.446679,2504.446677,2504.446676,2504.446674,2504.446672,2504.446670,2504.446669,2504.446667,2504.446665,2504.446663,
   ************* Simulation Error Summary *************
   ** Warning ** The following Report Variables were requested but not generated -- check.rdd file
   **   ~~~   ** Either the IDF did not contain these elements, the variable name is misspelled,
   **   ~~~   ** or the requested variable is an advanced output which requires Output : Diagnostics, DisplayAdvancedReportVariables;
   ************* Key=*, VarName=BASEBOARD TOTAL HEATING ENERGY, Frequency=
   ************* Key=*, VarName=WATER HEATER NATURALGAS ENERGY, Frequency=
   ************* Key=*, VarName=COOLING COIL TOTAL HEATING ENERGY, Frequency=
   ************* There are 34 unused schedules in input.
   ************* There are 388 unused week schedules in input.
   ************* There are 396 unused day schedules in input.
   ************* Use Output:Diagnostics,DisplayUnusedSchedules; to see them.
   *************
   ************* ===== Recurring Error Summary =====
   ************* The following recurring error messages occurred.
   *************
   *************  ** Warning ** "TOTAL HOT WATER LOAD" - Target water temperature should be less than or equal to the hot water temperature error continues...
   *************  **   ~~~   **   This error occurred 87797 total times;
   *************  **   ~~~   **   during Warmup 0 times;
   *************  **   ~~~   **   during Sizing 0 times.
   *************  **   ~~~   **   Max=8.868803  Min=3.614781E-005
   *************
   *************  ** Warning ** SimHVAC: Exceeding Maximum iterations for all HVAC loops, during ANNUAL continues
   *************  **   ~~~   **   This error occurred 8 total times;
   *************  **   ~~~   **   during Warmup 0 times;
   *************  **   ~~~   **   during Sizing 0 times.
   *************
   *************
   ************* ===== Final Error Summary =====
   ************* The following error categories occurred.  Consider correcting or noting.
   ************* Nominally Unused Constructions
   ************* ..The nominally unused constructions warning is provided to alert you to potential conditions that can cause
   ************* ..extra time during simulation. Each construction is calculated by the algorithm indicated in the HeatBalanceAlgorithm
   ************* ..object. You may remove the constructions indicated (when you use the DisplayExtraWarnings option).
   *************
   ************* EnergyPlus Warmup Error Summary. During Warmup: 1 Warning; 0 Severe Errors.
   ************* EnergyPlus Sizing Error Summary. During Sizing: 4 Warning; 0 Severe Errors.
   ************* EnergyPlus Completed Successfully-- 87837 Warning; 0 Severe Errors; Elapsed Time=00hr 04min 54.04sec
