Program Version,EnergyPlus, Version 22.2.0-c249759bad, YMD=2023.09.01 20:04,
   ************* Beginning Zone Sizing Calculations
   ** Warning ** ProcessScheduleInput: Schedule:Constant="ALWAYS ON DISCRETE", Schedule Type Limits Name="ONOFF" not found -- will not be validated
   ** Warning ** Foundation:Kiva="KIVA FOUNDATION", no Interior Horizontal Insulation Material Name defined
   **   ~~~   ** Interior Horizontal Insulation Depth will not be used.
   ** Warning ** CheckUsedConstructions: There are 15 nominally unused constructions in input.
   **   ~~~   ** Each Unused construction is shown.
   ************* Construction=INTERIOR FLOOR
   ************* Construction=INTERIOR WINDOW
   ************* Construction=EXTERIOR DOOR
   ************* Construction=INTERIOR DOOR
   ************* Construction=GABLE CONSTRUCTION
   ************* Construction=CRAWL_FLOOR
   ************* Construction=INSULATED PIPE
   ************* Construction=PLAIN PIPE
   ************* Construction=TDD PIPE
   ************* Construction=TDD DOME
   ************* Construction=TDD DIFFUSER
   ************* Construction=CRAWL WALL
   ************* Construction=CEILING-FLOOR-LAYER
   ************* Construction=SLAB CONSTRUCTION W FULL R10 INSULATION
   ************* Construction=SLAB CONSTRUCTION W FULL R5 INSULATION
   ** Warning ** GetDXCoils: Coil:Heating:DX:SingleSpeed="DX_HEATING_COIL" curve values
   **   ~~~   ** ... Defrost Energy Input Ratio Function of Temperature Curve Name = DEFROSTEIR output is not equal to 1.0 (+ or - 10%) at rated conditions.
   **   ~~~   ** ... Curve output at rated conditions = 0.152
   ************* Beginning System Sizing Calculations
   ************* Beginning Plant Sizing Calculations
   ** Warning ** Coil:WaterHeating:AirToWaterHeatPump:Wrapped "HEAT PUMP WATER HEATER EVAPORATOR": Rated air volume flow rate per watt of rated total water heating capacity is out of range
   **   ~~~   ** Min Rated Vol Flow Per Watt=[4.027E-005], Rated Vol Flow Per Watt=[1.510E-004], Max Rated Vol Flow Per Watt=[8.056E-005]. See Input-Output Reference Manual for valid range.
   ************* SizeFan: : Potential issue with equipment sizing for Fan:OnOff HEAT PUMP WATER HEATER FAN
   **   ~~~   ** User-Specified Maximum Flow Rate [m3/s] = 0.22653
   **   ~~~   ** differs from Design Size Maximum Flow Rate [m3/s] = 7.55250E-002
   **   ~~~   ** This may, or may not, indicate mismatched component sizes.
   **   ~~~   ** Verify that the value entered is intended and is consistent with other components.
   ** Warning ** Water heater = WATER HEATER TANK:  Recovery Efficiency and Energy Factor could not be calculated during the test for standard ratings
   **   ~~~   ** Setpoint was never recovered and/or heater never turned on
   ** Warning ** Check input. Pump nominal power or motor efficiency is set to 0, for pump=MAINS PRESSURE
   ** Warning ** Output:Meter: invalid Key Name="ELECTRIC_RANGE:INTERIOREQUIPMENT:ELECTRICITY" - not found.
   ** Warning ** Output:Meter: invalid Key Name="ELECTRIC_DRYER:INTERIOREQUIPMENT:ELECTRICITY" - not found.
   ** Warning ** Output:Meter: invalid Key Name="HEATRECOVERY:ELECTRICITY" - not found.
   ** Warning ** Output:Meter: invalid Key Name="HEATING:NATURALGAS" - not found.
   ** Warning ** Output:Meter: invalid Key Name="WATERSYSTEMS:NATURALGAS" - not found.
   ** Warning ** Output:Meter: invalid Key Name="PROPANE:FACILITY" - not found.
   ** Warning ** Output:Meter: invalid Key Name="HEATING:PROPANE" - not found.
   ************* Testing Individual Branch Integrity
   ************* All Branches passed integrity testing
   ************* Testing Individual Supply Air Path Integrity
   ************* All Supply Air Paths passed integrity testing
   ************* Testing Individual Return Air Path Integrity
   ************* All Return Air Paths passed integrity testing
   ************* No node connection errors were found.
   ************* Beginning Simulation
   ** Warning ** AirflowNetwork::Solver::validate_distribution: Heat pump water heater is simulated along with an AirflowNetwork but is not included in the AirflowNetwork.
   ** Warning ** CalcEquipmentFlowRates: "TOTAL HOT WATER LOAD" - Target water temperature is greater than the hot water temperature by (4.77 C)
   **   ~~~   **  Environment=EXTREME_WINTER, at Simulation time=12/22 07:00 - 07:15
   **   ~~~   ** ...target water temperature     = 53.33 C
   **   ~~~   ** ...hot water temperature        = 48.57 C
   **   ~~~   ** ...Target water temperature should be less than or equal to the hot water temperature. Verify temperature setpoints and schedules.
   ** Warning ** SimHVAC: Maximum iterations (20) exceeded for all HVAC loops, at ANNUAL, 01/31 12:15 - 12:30
   **   ~~~   ** The solution for one or more of the Air Loop HVAC systems did not appear to converge
   **   ~~~   ** Air System Named = CENTRAL SYSTEM did not converge for mass flow rate
   **   ~~~   ** Check values should be zero. Most Recent values listed first.
   **   ~~~   ** Demand-to-Supply interface mass flow rate check value iteration history trace: 0.102751,0.102751,0.102751,0.102751,0.102751,0.102751,0.102751,0.102751,0.102751,0.102751,
   **   ~~~   ** Supply-to-demand interface deck 1 mass flow rate check value iteration history trace: 0.102751,0.102751,0.102751,0.102751,0.102751,0.102751,0.102751,0.102751,0.102751,0.102751,
   **   ~~~   ** Air System Named = CENTRAL SYSTEM did not converge for energy
   **   ~~~   ** Check values should be zero. Most Recent values listed first.
   **   ~~~   ** Demand-to-Supply interface energy check value iteration history trace: 2036.046103,2036.046103,2036.046103,2036.046103,2036.046103,2036.046102,2036.046102,2036.046102,2036.046102,2036.046102,
   **   ~~~   ** Supply-to-demand interface deck 1 energy check value iteration history trace: 3075.593852,3075.593852,3075.593851,3075.593851,3075.593851,3075.593851,3075.593851,3075.593850,3075.593850,3075.593850,
   ** Warning ** SimHVAC: Maximum iterations (20) exceeded for all HVAC loops, at ANNUAL, 02/06 10:15 - 10:20
   **   ~~~   ** The solution for one or more of the Air Loop HVAC systems did not appear to converge
   **   ~~~   ** Air System Named = CENTRAL SYSTEM did not converge for mass flow rate
   **   ~~~   ** Check values should be zero. Most Recent values listed first.
   **   ~~~   ** Demand-to-Supply interface mass flow rate check value iteration history trace: 0.109154,0.109154,0.109154,0.109154,0.109154,0.109154,0.109154,0.109154,0.109154,0.109154,
   **   ~~~   ** Supply-to-demand interface deck 1 mass flow rate check value iteration history trace: 0.109154,0.109154,0.109154,0.109154,0.109154,0.109154,0.109154,0.109154,0.109154,0.109154,
   **   ~~~   ** Air System Named = CENTRAL SYSTEM did not converge for energy
   **   ~~~   ** Check values should be zero. Most Recent values listed first.
   **   ~~~   ** Demand-to-Supply interface energy check value iteration history trace: 2162.790952,2162.790952,2162.790952,2162.790952,2162.790951,2162.790951,2162.790951,2162.790951,2162.790951,2162.790951,
   **   ~~~   ** Supply-to-demand interface deck 1 energy check value iteration history trace: 3285.709361,3285.709361,3285.709361,3285.709361,3285.709360,3285.709360,3285.709360,3285.709360,3285.709359,3285.709359,
   ** Warning ** SimHVAC: Maximum iterations (20) exceeded for all HVAC loops, at ANNUAL, 02/06 13:45 - 14:00
   **   ~~~   ** The solution for one or more of the Air Loop HVAC systems did not appear to converge
   **   ~~~   ** Air System Named = CENTRAL SYSTEM did not converge for mass flow rate
   **   ~~~   ** Check values should be zero. Most Recent values listed first.
   **   ~~~   ** Demand-to-Supply interface mass flow rate check value iteration history trace: 4.145187E-002,4.145187E-002,4.145187E-002,4.145187E-002,4.145187E-002,4.145187E-002,4.145187E-002,4.145187E-002,4.145187E-002,4.145187E-002,
   **   ~~~   ** Supply-to-demand interface deck 1 mass flow rate check value iteration history trace: 4.145187E-002,4.145187E-002,4.145187E-002,4.145187E-002,4.145187E-002,4.145187E-002,4.145187E-002,4.145187E-002,4.145187E-002,4.145187E-002,
   **   ~~~   ** Air System Named = CENTRAL SYSTEM did not converge for energy
   **   ~~~   ** Check values should be zero. Most Recent values listed first.
   **   ~~~   ** Demand-to-Supply interface energy check value iteration history trace: 814.134771,814.134771,814.134771,814.134771,814.134771,814.134771,814.134771,814.134771,814.134771,814.134771,
   **   ~~~   ** Supply-to-demand interface deck 1 energy check value iteration history trace: 1241.353338,1241.353338,1241.353338,1241.353338,1241.353338,1241.353338,1241.353338,1241.353337,1241.353337,1241.353337,
   ** Warning ** SimHVAC: Maximum iterations (20) exceeded for all HVAC loops, at ANNUAL, 02/14 13:30 - 13:45
   **   ~~~   ** The solution for one or more of the Air Loop HVAC systems did not appear to converge
   **   ~~~   ** Air System Named = CENTRAL SYSTEM did not converge for mass flow rate
   **   ~~~   ** Check values should be zero. Most Recent values listed first.
   **   ~~~   ** Demand-to-Supply interface mass flow rate check value iteration history trace: 7.169938E-002,7.169938E-002,7.169938E-002,7.169938E-002,7.169938E-002,7.169938E-002,7.169938E-002,7.169938E-002,7.169938E-002,7.169938E-002,
   **   ~~~   ** Supply-to-demand interface deck 1 mass flow rate check value iteration history trace: 7.169938E-002,7.169938E-002,7.169938E-002,7.169938E-002,7.169938E-002,7.169938E-002,7.169938E-002,7.169938E-002,7.169938E-002,7.169938E-002,
   **   ~~~   ** Air System Named = CENTRAL SYSTEM did not converge for energy
   **   ~~~   ** Check values should be zero. Most Recent values listed first.
   **   ~~~   ** Demand-to-Supply interface energy check value iteration history trace: 1420.812761,1420.812761,1420.812761,1420.812761,1420.812761,1420.812761,1420.812760,1420.812760,1420.812760,1420.812760,
   **   ~~~   ** Supply-to-demand interface deck 1 energy check value iteration history trace: 2378.575173,2378.575173,2378.575173,2378.575173,2378.575172,2378.575172,2378.575172,2378.575172,2378.575172,2378.575172,
   ** Warning ** SimHVAC: Maximum iterations (20) exceeded for all HVAC loops, at ANNUAL, 02/18 12:30 - 12:45
   **   ~~~   ** The solution for one or more of the Air Loop HVAC systems did not appear to converge
   **   ~~~   ** Air System Named = CENTRAL SYSTEM did not converge for mass flow rate
   **   ~~~   ** Check values should be zero. Most Recent values listed first.
   **   ~~~   ** Demand-to-Supply interface mass flow rate check value iteration history trace: 6.140962E-002,6.140962E-002,6.140962E-002,6.140962E-002,6.140962E-002,6.140962E-002,6.140962E-002,6.140962E-002,6.140962E-002,6.140962E-002,
   **   ~~~   ** Supply-to-demand interface deck 1 mass flow rate check value iteration history trace: 6.140962E-002,6.140962E-002,6.140962E-002,6.140962E-002,6.140962E-002,6.140962E-002,6.140962E-002,6.140962E-002,6.140962E-002,6.140962E-002,
   **   ~~~   ** Air System Named = CENTRAL SYSTEM did not converge for energy
   **   ~~~   ** Check values should be zero. Most Recent values listed first.
   **   ~~~   ** Demand-to-Supply interface energy check value iteration history trace: 1208.603173,1208.603173,1208.603173,1208.603173,1208.603173,1208.603173,1208.603173,1208.603173,1208.603173,1208.603173,
   **   ~~~   ** Supply-to-demand interface deck 1 energy check value iteration history trace: 2053.224212,2053.224212,2053.224212,2053.224212,2053.224212,2053.224212,2053.224212,2053.224211,2053.224211,2053.224211,
   ** Warning ** SimHVAC: Maximum iterations (20) exceeded for all HVAC loops, at ANNUAL, 02/20 16:00 - 16:15
   **   ~~~   ** The solution for one or more of the Air Loop HVAC systems did not appear to converge
   **   ~~~   ** Air System Named = CENTRAL SYSTEM did not converge for mass flow rate
   **   ~~~   ** Check values should be zero. Most Recent values listed first.
   **   ~~~   ** Demand-to-Supply interface mass flow rate check value iteration history trace: 0.104650,0.104650,0.104650,0.104650,0.104650,0.104650,0.104650,0.104650,0.104650,0.104650,
   **   ~~~   ** Supply-to-demand interface deck 1 mass flow rate check value iteration history trace: 0.104650,0.104650,0.104650,0.104650,0.104650,0.104650,0.104650,0.104650,0.104650,0.104650,
   **   ~~~   ** Air System Named = CENTRAL SYSTEM did not converge for energy
   **   ~~~   ** Check values should be zero. Most Recent values listed first.
   **   ~~~   ** Demand-to-Supply interface energy check value iteration history trace: 2052.598176,2052.598175,2052.598175,2052.598175,2052.598175,2052.598175,2052.598175,2052.598175,2052.598175,2052.598174,
   **   ~~~   ** Supply-to-demand interface deck 1 energy check value iteration history trace: 3104.897249,3104.897249,3104.897249,3104.897249,3104.897248,3104.897248,3104.897248,3104.897248,3104.897248,3104.897248,
   ** Warning ** SimHVAC: Maximum iterations (20) exceeded for all HVAC loops, at ANNUAL, 03/19 21:00 - 21:08
   **   ~~~   ** The solution for one or more of the Air Loop HVAC systems did not appear to converge
   **   ~~~   ** Air System Named = CENTRAL SYSTEM did not converge for mass flow rate
   **   ~~~   ** Check values should be zero. Most Recent values listed first.
   **   ~~~   ** Demand-to-Supply interface mass flow rate check value iteration history trace: 0.113413,0.113413,0.113413,0.113413,0.113413,0.113413,0.113413,0.113413,0.113413,0.113413,
   **   ~~~   ** Supply-to-demand interface deck 1 mass flow rate check value iteration history trace: 0.113413,0.113413,0.113413,0.113413,0.113413,0.113413,0.113413,0.113413,0.113413,0.113413,
   **   ~~~   ** Air System Named = CENTRAL SYSTEM did not converge for energy
   **   ~~~   ** Check values should be zero. Most Recent values listed first.
   **   ~~~   ** Demand-to-Supply interface energy check value iteration history trace: 2235.198176,2235.198176,2235.198176,2235.198176,2235.198176,2235.198176,2235.198175,2235.198175,2235.198175,2235.198175,
   **   ~~~   ** Supply-to-demand interface deck 1 energy check value iteration history trace: 3403.359844,3403.359844,3403.359843,3403.359843,3403.359843,3403.359843,3403.359842,3403.359842,3403.359842,3403.359842,
   ** Warning ** SimHVAC: Maximum iterations (20) exceeded for all HVAC loops, at ANNUAL, 04/01 10:30 - 10:35
   **   ~~~   ** The solution for one or more of the Air Loop HVAC systems did not appear to converge
   **   ~~~   ** Air System Named = CENTRAL SYSTEM did not converge for mass flow rate
   **   ~~~   ** Check values should be zero. Most Recent values listed first.
   **   ~~~   ** Demand-to-Supply interface mass flow rate check value iteration history trace: 7.191895E-002,7.191895E-002,7.191895E-002,7.191895E-002,7.191895E-002,7.191895E-002,7.191895E-002,7.191895E-002,7.191895E-002,7.191895E-002,
   **   ~~~   ** Supply-to-demand interface deck 1 mass flow rate check value iteration history trace: 7.191895E-002,7.191895E-002,7.191895E-002,7.191895E-002,7.191895E-002,7.191895E-002,7.191895E-002,7.191895E-002,7.191895E-002,7.191895E-002,
   **   ~~~   ** Air System Named = CENTRAL SYSTEM did not converge for energy
   **   ~~~   ** Check values should be zero. Most Recent values listed first.
   **   ~~~   ** Demand-to-Supply interface energy check value iteration history trace: 1425.131834,1425.131833,1425.131833,1425.131833,1425.131833,1425.131833,1425.131833,1425.131833,1425.131833,1425.131833,
   **   ~~~   ** Supply-to-demand interface deck 1 energy check value iteration history trace: 2406.693054,2406.693054,2406.693054,2406.693053,2406.693053,2406.693053,2406.693053,2406.693053,2406.693053,2406.693053,
   ** Warning ** SimHVAC: Maximum iterations (20) exceeded for all HVAC loops, at ANNUAL, 04/03 12:53 - 13:00
   **   ~~~   ** The solution for one or more of the Air Loop HVAC systems did not appear to converge
   **   ~~~   ** Air System Named = CENTRAL SYSTEM did not converge for mass flow rate
   **   ~~~   ** Check values should be zero. Most Recent values listed first.
   **   ~~~   ** Demand-to-Supply interface mass flow rate check value iteration history trace: 5.729842E-002,5.729842E-002,5.729842E-002,5.729842E-002,5.729842E-002,5.729842E-002,5.729842E-002,5.729842E-002,5.729842E-002,5.729842E-002,
   **   ~~~   ** Supply-to-demand interface deck 1 mass flow rate check value iteration history trace: 5.729842E-002,5.729842E-002,5.729842E-002,5.729842E-002,5.729842E-002,5.729842E-002,5.729842E-002,5.729842E-002,5.729842E-002,5.729842E-002,
   **   ~~~   ** Air System Named = CENTRAL SYSTEM did not converge for energy
   **   ~~~   ** Check values should be zero. Most Recent values listed first.
   **   ~~~   ** Demand-to-Supply interface energy check value iteration history trace: 1121.645898,1121.645898,1121.645898,1121.645898,1121.645898,1121.645898,1121.645898,1121.645898,1121.645898,1121.645898,
   **   ~~~   ** Supply-to-demand interface deck 1 energy check value iteration history trace: 1900.662044,1900.662044,1900.662044,1900.662044,1900.662044,1900.662044,1900.662044,1900.662044,1900.662043,1900.662043,
   ** Warning ** SimHVAC: Maximum iterations (20) exceeded for all HVAC loops, at ANNUAL, 04/05 08:45 - 08:48
   **   ~~~   ** The solution for one or more of the Air Loop HVAC systems did not appear to converge
   **   ~~~   ** Air System Named = CENTRAL SYSTEM did not converge for mass flow rate
   **   ~~~   ** Check values should be zero. Most Recent values listed first.
   **   ~~~   ** Demand-to-Supply interface mass flow rate check value iteration history trace: 8.370176E-002,8.370176E-002,8.370176E-002,8.370176E-002,8.370176E-002,8.370176E-002,8.370176E-002,8.370176E-002,8.370176E-002,8.370176E-002,
   **   ~~~   ** Supply-to-demand interface deck 1 mass flow rate check value iteration history trace: 8.370176E-002,8.370176E-002,8.370176E-002,8.370176E-002,8.370176E-002,8.370176E-002,8.370176E-002,8.370176E-002,8.370176E-002,8.370176E-002,
   **   ~~~   ** Air System Named = CENTRAL SYSTEM did not converge for energy
   **   ~~~   ** Check values should be zero. Most Recent values listed first.
   **   ~~~   ** Demand-to-Supply interface energy check value iteration history trace: 1658.638448,1658.638448,1658.638448,1658.638448,1658.638448,1658.638448,1658.638448,1658.638448,1658.638448,1658.638448,
   **   ~~~   ** Supply-to-demand interface deck 1 energy check value iteration history trace: 2822.262888,2822.262888,2822.262888,2822.262887,2822.262887,2822.262887,2822.262887,2822.262887,2822.262887,2822.262887,
   ** Warning ** SimHVAC: Maximum iterations (20) exceeded for all HVAC loops, at ANNUAL, 05/06 23:23 - 23:30
   **   ~~~   ** The solution for one or more of the Air Loop HVAC systems did not appear to converge
   **   ~~~   ** Air System Named = CENTRAL SYSTEM did not converge for mass flow rate
   **   ~~~   ** Check values should be zero. Most Recent values listed first.
   **   ~~~   ** Demand-to-Supply interface mass flow rate check value iteration history trace: 5.857708E-002,5.857708E-002,5.857708E-002,5.857708E-002,5.857708E-002,5.857708E-002,5.857708E-002,5.857708E-002,5.857708E-002,5.857708E-002,
   **   ~~~   ** Supply-to-demand interface deck 1 mass flow rate check value iteration history trace: 5.857708E-002,5.857708E-002,5.857708E-002,5.857708E-002,5.857708E-002,5.857708E-002,5.857708E-002,5.857708E-002,5.857708E-002,5.857708E-002,
   **   ~~~   ** Air System Named = CENTRAL SYSTEM did not converge for energy
   **   ~~~   ** Check values should be zero. Most Recent values listed first.
   **   ~~~   ** Demand-to-Supply interface energy check value iteration history trace: 1094.954974,1094.954974,1094.954974,1094.954974,1094.954974,1094.954974,1094.954974,1094.954974,1094.954974,1094.954974,
   **   ~~~   ** Supply-to-demand interface deck 1 energy check value iteration history trace: 1922.538897,1922.538897,1922.538897,1922.538897,1922.538897,1922.538897,1922.538897,1922.538897,1922.538897,1922.538897,
   ** Warning ** SimHVAC: Maximum iterations (20) exceeded for all HVAC loops, at ANNUAL, 05/17 09:45 - 10:00
   **   ~~~   ** The solution for one or more of the Air Loop HVAC systems did not appear to converge
   **   ~~~   ** Air System Named = CENTRAL SYSTEM did not converge for mass flow rate
   **   ~~~   ** Check values should be zero. Most Recent values listed first.
   **   ~~~   ** Demand-to-Supply interface mass flow rate check value iteration history trace: 8.085150E-002,8.085150E-002,8.085150E-002,8.085150E-002,8.085150E-002,8.085150E-002,8.085150E-002,8.085150E-002,8.085150E-002,8.085150E-002,
   **   ~~~   ** Supply-to-demand interface deck 1 mass flow rate check value iteration history trace: 8.085150E-002,8.085150E-002,8.085150E-002,8.085150E-002,8.085150E-002,8.085150E-002,8.085150E-002,8.085150E-002,8.085150E-002,8.085150E-002,
   **   ~~~   ** Air System Named = CENTRAL SYSTEM did not converge for energy
   **   ~~~   ** Check values should be zero. Most Recent values listed first.
   **   ~~~   ** Demand-to-Supply interface energy check value iteration history trace: 1601.344063,1601.344063,1601.344063,1601.344062,1601.344062,1601.344062,1601.344061,1601.344061,1601.344061,1601.344061,
   **   ~~~   ** Supply-to-demand interface deck 1 energy check value iteration history trace: 2741.887838,2741.887838,2741.887837,2741.887837,2741.887836,2741.887836,2741.887835,2741.887835,2741.887834,2741.887834,
   ** Warning ** SimHVAC: Maximum iterations (20) exceeded for all HVAC loops, at ANNUAL, 06/21 05:50 - 05:52
   **   ~~~   ** The solution for one or more of the Air Loop HVAC systems did not appear to converge
   **   ~~~   ** Air System Named = CENTRAL SYSTEM did not converge for mass flow rate
   **   ~~~   ** Check values should be zero. Most Recent values listed first.
   **   ~~~   ** Demand-to-Supply interface mass flow rate check value iteration history trace: 0.255762,0.255762,0.255762,0.255762,0.255762,0.255762,0.255762,0.255762,0.255762,0.255762,
   **   ~~~   ** Supply-to-demand interface deck 1 mass flow rate check value iteration history trace: 0.255762,0.255762,0.255762,0.255762,0.255762,0.255762,0.255762,0.255762,0.255762,0.255762,
   **   ~~~   ** Air System Named = CENTRAL SYSTEM did not converge for energy
   **   ~~~   ** Check values should be zero. Most Recent values listed first.
   **   ~~~   ** Demand-to-Supply interface energy check value iteration history trace: 6053.953297,6053.953297,6053.953298,6053.953298,6053.953299,6053.953299,6053.953300,6053.953300,6053.953301,6053.953301,
   **   ~~~   ** Supply-to-demand interface deck 1 energy check value iteration history trace: 3383.870271,3383.870271,3383.870272,3383.870272,3383.870272,3383.870273,3383.870273,3383.870273,3383.870273,3383.870274,
   ** Warning ** SimHVAC: Maximum iterations (20) exceeded for all HVAC loops, at ANNUAL, 06/21 06:24 - 06:27
   **   ~~~   ** The solution for one or more of the Air Loop HVAC systems did not appear to converge
   **   ~~~   ** Air System Named = CENTRAL SYSTEM did not converge for mass flow rate
   **   ~~~   ** Check values should be zero. Most Recent values listed first.
   **   ~~~   ** Demand-to-Supply interface mass flow rate check value iteration history trace: 0.120320,0.120320,0.120320,0.120320,0.120320,0.120320,0.120320,0.120320,0.120320,0.120320,
   **   ~~~   ** Supply-to-demand interface deck 1 mass flow rate check value iteration history trace: 0.120320,0.120320,0.120320,0.120320,0.120320,0.120320,0.120320,0.120320,0.120320,0.120320,
   **   ~~~   ** Air System Named = CENTRAL SYSTEM did not converge for energy
   **   ~~~   ** Check values should be zero. Most Recent values listed first.
   **   ~~~   ** Demand-to-Supply interface energy check value iteration history trace: 2834.917649,2834.917649,2834.917649,2834.917649,2834.917649,2834.917650,2834.917650,2834.917650,2834.917650,2834.917650,
   **   ~~~   ** Supply-to-demand interface deck 1 energy check value iteration history trace: 1576.808321,1576.808321,1576.808321,1576.808321,1576.808321,1576.808322,1576.808322,1576.808322,1576.808322,1576.808322,
   ************* Simulation Error Summary *************
   ** Warning ** The following Report Variables were requested but not generated -- check.rdd file
   **   ~~~   ** Either the IDF did not contain these elements, the variable name is misspelled,
   **   ~~~   ** or the requested variable is an advanced output which requires Output : Diagnostics, DisplayAdvancedReportVariables;
   ************* Key=*, VarName=BASEBOARD TOTAL HEATING ENERGY, Frequency=
   ************* Key=*, VarName=WATER HEATER NATURALGAS ENERGY, Frequency=
   ************* Key=*, VarName=COOLING COIL TOTAL HEATING ENERGY, Frequency=
   ************* There are 34 unused schedules in input.
   ************* There are 388 unused week schedules in input.
   ************* There are 396 unused day schedules in input.
   ************* Use Output:Diagnostics,DisplayUnusedSchedules; to see them.
   *************
   ************* ===== Recurring Error Summary =====
   ************* The following recurring error messages occurred.
   *************
   *************  ** Warning ** "TOTAL HOT WATER LOAD" - Target water temperature should be less than or equal to the hot water temperature error continues...
   *************  **   ~~~   **   This error occurred 145189 total times;
   *************  **   ~~~   **   during Warmup 0 times;
   *************  **   ~~~   **   during Sizing 0 times.
   *************  **   ~~~   **   Max=15.524876  Min=2.095962E-003
   *************
   *************  ** Warning ** SimHVAC: Exceeding Maximum iterations for all HVAC loops, during ANNUAL continues
   *************  **   ~~~   **   This error occurred 11 total times;
   *************  **   ~~~   **   during Warmup 0 times;
   *************  **   ~~~   **   during Sizing 0 times.
   *************
   *************
   ************* ===== Final Error Summary =====
   ************* The following error categories occurred.  Consider correcting or noting.
   ************* Nominally Unused Constructions
   ************* ..The nominally unused constructions warning is provided to alert you to potential conditions that can cause
   ************* ..extra time during simulation. Each construction is calculated by the algorithm indicated in the HeatBalanceAlgorithm
   ************* ..object. You may remove the constructions indicated (when you use the DisplayExtraWarnings option).
   *************
   ************* EnergyPlus Warmup Error Summary. During Warmup: 1 Warning; 0 Severe Errors.
   ************* EnergyPlus Sizing Error Summary. During Sizing: 4 Warning; 0 Severe Errors.
   ************* EnergyPlus Completed Successfully-- 145231 Warning; 0 Severe Errors; Elapsed Time=00hr 01min 32.79sec
