Program Version,EnergyPlus, Version 22.2.0-c249759bad, YMD=2023.09.01 17:37,
   ************* Beginning Zone Sizing Calculations
   ** Warning ** ProcessScheduleInput: Schedule:Constant="ALWAYS ON DISCRETE", Schedule Type Limits Name="ONOFF" not found -- will not be validated
   ** Warning ** Foundation:Kiva="KIVA FOUNDATION", no Interior Horizontal Insulation Material Name defined
   **   ~~~   ** Interior Horizontal Insulation Depth will not be used.
   ** Warning ** CheckUsedConstructions: There are 15 nominally unused constructions in input.
   **   ~~~   ** Each Unused construction is shown.
   ************* Construction=INTERIOR FLOOR
   ************* Construction=INTERIOR WINDOW
   ************* Construction=EXTERIOR DOOR
   ************* Construction=INTERIOR DOOR
   ************* Construction=GABLE CONSTRUCTION
   ************* Construction=CRAWL_FLOOR
   ************* Construction=INSULATED PIPE
   ************* Construction=PLAIN PIPE
   ************* Construction=TDD PIPE
   ************* Construction=TDD DOME
   ************* Construction=TDD DIFFUSER
   ************* Construction=CRAWL WALL
   ************* Construction=CEILING-FLOOR-LAYER
   ************* Construction=SLAB CONSTRUCTION W FULL R10 INSULATION
   ************* Construction=SLAB CONSTRUCTION W FULL R5 INSULATION
   ** Warning ** GetDXCoils: Coil:Heating:DX:SingleSpeed="DX_HEATING_COIL" curve values
   **   ~~~   ** ... Defrost Energy Input Ratio Function of Temperature Curve Name = DEFROSTEIR output is not equal to 1.0 (+ or - 10%) at rated conditions.
   **   ~~~   ** ... Curve output at rated conditions = 0.152
   ************* Beginning System Sizing Calculations
   ************* Beginning Plant Sizing Calculations
   ** Warning ** SizeDXCoil Coil:Cooling:DX:SingleSpeed DX_COOLING_COIL
   **   ~~~   ** ...Gross Rated Total Cooling Capacity [W] will be limited by the maximum rated volume flow per rated total capacity ratio.
   **   ~~~   ** ...DX coil volume flow rate ( m3/s ) = 0.360318
   **   ~~~   ** ...Requested capacity ( W ) = 5467.070
   **   ~~~   ** ...Requested flow/capacity ratio ( m3/s/W ) = 6.590E-005
   **   ~~~   ** ...Maximum flow/capacity ratio ( m3/s/W ) = 6.041E-005
   **   ~~~   ** ...Adjusted capacity ( W ) = 5964.553
   ** Warning ** Coil:WaterHeating:AirToWaterHeatPump:Wrapped "HEAT PUMP WATER HEATER EVAPORATOR": Rated air volume flow rate per watt of rated total water heating capacity is out of range
   **   ~~~   ** Min Rated Vol Flow Per Watt=[4.027E-005], Rated Vol Flow Per Watt=[1.510E-004], Max Rated Vol Flow Per Watt=[8.056E-005]. See Input-Output Reference Manual for valid range.
   ************* SizeFan: : Potential issue with equipment sizing for Fan:OnOff HEAT PUMP WATER HEATER FAN
   **   ~~~   ** User-Specified Maximum Flow Rate [m3/s] = 0.22653
   **   ~~~   ** differs from Design Size Maximum Flow Rate [m3/s] = 7.55250E-002
   **   ~~~   ** This may, or may not, indicate mismatched component sizes.
   **   ~~~   ** Verify that the value entered is intended and is consistent with other components.
   ** Warning ** Water heater = WATER HEATER TANK:  Recovery Efficiency and Energy Factor could not be calculated during the test for standard ratings
   **   ~~~   ** Setpoint was never recovered and/or heater never turned on
   ** Warning ** Check input. Pump nominal power or motor efficiency is set to 0, for pump=MAINS PRESSURE
   ** Warning ** Output:Meter: invalid Key Name="ELECTRIC_RANGE:INTERIOREQUIPMENT:ELECTRICITY" - not found.
   ** Warning ** Output:Meter: invalid Key Name="ELECTRIC_DRYER:INTERIOREQUIPMENT:ELECTRICITY" - not found.
   ** Warning ** Output:Meter: invalid Key Name="HEATRECOVERY:ELECTRICITY" - not found.
   ** Warning ** Output:Meter: invalid Key Name="HEATING:NATURALGAS" - not found.
   ** Warning ** Output:Meter: invalid Key Name="WATERSYSTEMS:NATURALGAS" - not found.
   ** Warning ** Output:Meter: invalid Key Name="PROPANE:FACILITY" - not found.
   ** Warning ** Output:Meter: invalid Key Name="HEATING:PROPANE" - not found.
   ************* Testing Individual Branch Integrity
   ************* All Branches passed integrity testing
   ************* Testing Individual Supply Air Path Integrity
   ************* All Supply Air Paths passed integrity testing
   ************* Testing Individual Return Air Path Integrity
   ************* All Return Air Paths passed integrity testing
   ************* No node connection errors were found.
   ************* Beginning Simulation
   ** Warning ** AirflowNetwork::Solver::validate_distribution: Heat pump water heater is simulated along with an AirflowNetwork but is not included in the AirflowNetwork.
   ** Warning ** CalcEquipmentFlowRates: "TOTAL HOT WATER LOAD" - Target water temperature is greater than the hot water temperature by (1.27 C)
   **   ~~~   **  Environment=EXTREME_WINTER, at Simulation time=12/15 06:00 - 06:15
   **   ~~~   ** ...target water temperature     = 53.33 C
   **   ~~~   ** ...hot water temperature        = 52.06 C
   **   ~~~   ** ...Target water temperature should be less than or equal to the hot water temperature. Verify temperature setpoints and schedules.
   ** Warning ** SimHVAC: Maximum iterations (20) exceeded for all HVAC loops, at ANNUAL, 04/10 08:45 - 08:48
   **   ~~~   ** The solution for one or more of the Air Loop HVAC systems did not appear to converge
   **   ~~~   ** Air System Named = CENTRAL SYSTEM did not converge for mass flow rate
   **   ~~~   ** Check values should be zero. Most Recent values listed first.
   **   ~~~   ** Demand-to-Supply interface mass flow rate check value iteration history trace: 5.605129E-002,5.605129E-002,5.605129E-002,5.605129E-002,5.605129E-002,5.605129E-002,5.605129E-002,5.605129E-002,5.605129E-002,5.605129E-002,
   **   ~~~   ** Supply-to-demand interface deck 1 mass flow rate check value iteration history trace: 5.605129E-002,5.605129E-002,5.605129E-002,5.605129E-002,5.605129E-002,5.605129E-002,5.605129E-002,5.605129E-002,5.605129E-002,5.605129E-002,
   **   ~~~   ** Air System Named = CENTRAL SYSTEM did not converge for energy
   **   ~~~   ** Check values should be zero. Most Recent values listed first.
   **   ~~~   ** Demand-to-Supply interface energy check value iteration history trace: 1110.718737,1110.718737,1110.718737,1110.718737,1110.718737,1110.718736,1110.718736,1110.718736,1110.718736,1110.718736,
   **   ~~~   ** Supply-to-demand interface deck 1 energy check value iteration history trace: 1972.102649,1972.102649,1972.102649,1972.102649,1972.102649,1972.102649,1972.102649,1972.102649,1972.102648,1972.102648,
   ** Warning ** SimHVAC: Maximum iterations (20) exceeded for all HVAC loops, at ANNUAL, 05/07 10:10 - 10:15
   **   ~~~   ** The solution for one or more of the Air Loop HVAC systems did not appear to converge
   **   ~~~   ** Air System Named = CENTRAL SYSTEM did not converge for mass flow rate
   **   ~~~   ** Check values should be zero. Most Recent values listed first.
   **   ~~~   ** Demand-to-Supply interface mass flow rate check value iteration history trace: 6.234075E-002,6.234075E-002,6.234075E-002,6.234075E-002,6.234075E-002,6.234075E-002,6.234075E-002,6.234075E-002,6.234075E-002,6.234075E-002,
   **   ~~~   ** Supply-to-demand interface deck 1 mass flow rate check value iteration history trace: 6.234075E-002,6.234075E-002,6.234075E-002,6.234075E-002,6.234075E-002,6.234075E-002,6.234075E-002,6.234075E-002,6.234075E-002,6.234075E-002,
   **   ~~~   ** Air System Named = CENTRAL SYSTEM did not converge for energy
   **   ~~~   ** Check values should be zero. Most Recent values listed first.
   **   ~~~   ** Demand-to-Supply interface energy check value iteration history trace: 1222.137048,1222.137048,1222.137048,1222.137048,1222.137048,1222.137048,1222.137048,1222.137047,1222.137047,1222.137047,
   **   ~~~   ** Supply-to-demand interface deck 1 energy check value iteration history trace: 2269.263967,2269.263967,2269.263967,2269.263967,2269.263967,2269.263967,2269.263967,2269.263967,2269.263967,2269.263967,
   ** Warning ** SimHVAC: Maximum iterations (20) exceeded for all HVAC loops, at ANNUAL, 06/02 06:50 - 06:55
   **   ~~~   ** The solution for one or more of the Air Loop HVAC systems did not appear to converge
   **   ~~~   ** Air System Named = CENTRAL SYSTEM did not converge for mass flow rate
   **   ~~~   ** Check values should be zero. Most Recent values listed first.
   **   ~~~   ** Demand-to-Supply interface mass flow rate check value iteration history trace: 7.667962E-002,7.667962E-002,7.667962E-002,7.667962E-002,7.667962E-002,7.667962E-002,7.667962E-002,7.667962E-002,7.667962E-002,7.667962E-002,
   **   ~~~   ** Supply-to-demand interface deck 1 mass flow rate check value iteration history trace: 7.667962E-002,7.667962E-002,7.667962E-002,7.667962E-002,7.667962E-002,7.667962E-002,7.667962E-002,7.667962E-002,7.667962E-002,7.667962E-002,
   **   ~~~   ** Air System Named = CENTRAL SYSTEM did not converge for energy
   **   ~~~   ** Check values should be zero. Most Recent values listed first.
   **   ~~~   ** Demand-to-Supply interface energy check value iteration history trace: 1809.737109,1809.737109,1809.737110,1809.737110,1809.737110,1809.737110,1809.737111,1809.737111,1809.737111,1809.737111,
   **   ~~~   ** Supply-to-demand interface deck 1 energy check value iteration history trace: 950.190838,950.190838,950.190838,950.190838,950.190838,950.190838,950.190839,950.190839,950.190839,950.190839,
   ** Warning ** SimHVAC: Maximum iterations (20) exceeded for all HVAC loops, at ANNUAL, 06/20 07:19 - 07:20
   **   ~~~   ** The solution for one or more of the Air Loop HVAC systems did not appear to converge
   **   ~~~   ** Air System Named = CENTRAL SYSTEM did not converge for mass flow rate
   **   ~~~   ** Check values should be zero. Most Recent values listed first.
   **   ~~~   ** Demand-to-Supply interface mass flow rate check value iteration history trace: 0.290463,0.290463,0.290463,0.290463,0.290463,0.290463,0.290463,0.290463,0.290463,0.290463,
   **   ~~~   ** Supply-to-demand interface deck 1 mass flow rate check value iteration history trace: 0.290463,0.290463,0.290463,0.290463,0.290463,0.290463,0.290463,0.290463,0.290463,0.290463,
   **   ~~~   ** Air System Named = CENTRAL SYSTEM did not converge for energy
   **   ~~~   ** Check values should be zero. Most Recent values listed first.
   **   ~~~   ** Demand-to-Supply interface energy check value iteration history trace: 6874.144240,6874.144241,6874.144243,6874.144244,6874.144245,6874.144246,6874.144247,6874.144248,6874.144250,6874.144251,
   **   ~~~   ** Supply-to-demand interface deck 1 energy check value iteration history trace: 3122.814686,3122.814686,3122.814687,3122.814687,3122.814688,3122.814688,3122.814689,3122.814689,3122.814690,3122.814690,
   ** Warning ** SimHVAC: Maximum iterations (20) exceeded for all HVAC loops, at ANNUAL, 06/20 08:43 - 08:45
   **   ~~~   ** The solution for one or more of the Air Loop HVAC systems did not appear to converge
   **   ~~~   ** Air System Named = CENTRAL SYSTEM did not converge for mass flow rate
   **   ~~~   ** Check values should be zero. Most Recent values listed first.
   **   ~~~   ** Demand-to-Supply interface mass flow rate check value iteration history trace: 7.657932E-002,7.657932E-002,7.657932E-002,7.657932E-002,7.657932E-002,7.657932E-002,7.657932E-002,7.657932E-002,7.657932E-002,7.657932E-002,
   **   ~~~   ** Supply-to-demand interface deck 1 mass flow rate check value iteration history trace: 7.657932E-002,7.657932E-002,7.657932E-002,7.657932E-002,7.657932E-002,7.657932E-002,7.657932E-002,7.657932E-002,7.657932E-002,7.657932E-002,
   **   ~~~   ** Air System Named = CENTRAL SYSTEM did not converge for energy
   **   ~~~   ** Check values should be zero. Most Recent values listed first.
   **   ~~~   ** Demand-to-Supply interface energy check value iteration history trace: 1802.062888,1802.062888,1802.062889,1802.062889,1802.062889,1802.062890,1802.062890,1802.062890,1802.062890,1802.062891,
   **   ~~~   ** Supply-to-demand interface deck 1 energy check value iteration history trace: 823.228430,823.228431,823.228431,823.228431,823.228431,823.228431,823.228431,823.228431,823.228432,823.228432,
   ** Warning ** SimHVAC: Maximum iterations (20) exceeded for all HVAC loops, at ANNUAL, 09/16 20:15 - 20:30
   **   ~~~   ** The solution for one or more of the Air Loop HVAC systems did not appear to converge
   **   ~~~   ** Air System Named = CENTRAL SYSTEM did not converge for mass flow rate
   **   ~~~   ** Check values should be zero. Most Recent values listed first.
   **   ~~~   ** Demand-to-Supply interface mass flow rate check value iteration history trace: 7.410085E-002,7.410085E-002,7.410085E-002,7.410085E-002,7.410085E-002,7.410085E-002,7.410085E-002,7.410085E-002,7.410085E-002,7.410085E-002,
   **   ~~~   ** Supply-to-demand interface deck 1 mass flow rate check value iteration history trace: 7.410085E-002,7.410085E-002,7.410085E-002,7.410085E-002,7.410085E-002,7.410085E-002,7.410085E-002,7.410085E-002,7.410085E-002,7.410085E-002,
   **   ~~~   ** Air System Named = CENTRAL SYSTEM did not converge for energy
   **   ~~~   ** Check values should be zero. Most Recent values listed first.
   **   ~~~   ** Demand-to-Supply interface energy check value iteration history trace: 1761.589066,1761.589066,1761.589066,1761.589067,1761.589067,1761.589067,1761.589067,1761.589067,1761.589067,1761.589067,
   **   ~~~   ** Supply-to-demand interface deck 1 energy check value iteration history trace: 714.064306,714.064306,714.064306,714.064306,714.064306,714.064306,714.064306,714.064306,714.064306,714.064306,
   ** Warning ** SimHVAC: Maximum iterations (20) exceeded for all HVAC loops, at ANNUAL, 10/08 09:45 - 10:00
   **   ~~~   ** The solution for one or more of the Air Loop HVAC systems did not appear to converge
   **   ~~~   ** Air System Named = CENTRAL SYSTEM did not converge for mass flow rate
   **   ~~~   ** Check values should be zero. Most Recent values listed first.
   **   ~~~   ** Demand-to-Supply interface mass flow rate check value iteration history trace: 6.823549E-002,6.823549E-002,6.823549E-002,6.823549E-002,6.823549E-002,6.823549E-002,6.823549E-002,6.823549E-002,6.823549E-002,6.823549E-002,
   **   ~~~   ** Supply-to-demand interface deck 1 mass flow rate check value iteration history trace: 6.823549E-002,6.823549E-002,6.823549E-002,6.823549E-002,6.823549E-002,6.823549E-002,6.823549E-002,6.823549E-002,6.823549E-002,6.823549E-002,
   **   ~~~   ** Air System Named = CENTRAL SYSTEM did not converge for energy
   **   ~~~   ** Check values should be zero. Most Recent values listed first.
   **   ~~~   ** Demand-to-Supply interface energy check value iteration history trace: 1346.157460,1346.157460,1346.157460,1346.157460,1346.157459,1346.157459,1346.157459,1346.157459,1346.157459,1346.157459,
   **   ~~~   ** Supply-to-demand interface deck 1 energy check value iteration history trace: 2363.694068,2363.694068,2363.694068,2363.694068,2363.694068,2363.694068,2363.694068,2363.694068,2363.694068,2363.694067,
   ** Warning ** SimHVAC: Maximum iterations (20) exceeded for all HVAC loops, at ANNUAL, 10/21 09:15 - 09:30
   **   ~~~   ** The solution for one or more of the Air Loop HVAC systems did not appear to converge
   **   ~~~   ** Air System Named = CENTRAL SYSTEM did not converge for mass flow rate
   **   ~~~   ** Check values should be zero. Most Recent values listed first.
   **   ~~~   ** Demand-to-Supply interface mass flow rate check value iteration history trace: 6.912674E-002,6.912674E-002,6.912674E-002,6.912674E-002,6.912674E-002,6.912674E-002,6.912674E-002,6.912674E-002,6.912674E-002,6.912674E-002,
   **   ~~~   ** Supply-to-demand interface deck 1 mass flow rate check value iteration history trace: 6.912674E-002,6.912674E-002,6.912674E-002,6.912674E-002,6.912674E-002,6.912674E-002,6.912674E-002,6.912674E-002,6.912674E-002,6.912674E-002,
   **   ~~~   ** Air System Named = CENTRAL SYSTEM did not converge for energy
   **   ~~~   ** Check values should be zero. Most Recent values listed first.
   **   ~~~   ** Demand-to-Supply interface energy check value iteration history trace: 1368.189230,1368.189230,1368.189230,1368.189230,1368.189230,1368.189230,1368.189230,1368.189230,1368.189230,1368.189230,
   **   ~~~   ** Supply-to-demand interface deck 1 energy check value iteration history trace: 2370.919415,2370.919415,2370.919414,2370.919414,2370.919414,2370.919414,2370.919414,2370.919414,2370.919414,2370.919414,
   ** Warning ** SimHVAC: Maximum iterations (20) exceeded for all HVAC loops, at ANNUAL, 10/22 10:15 - 10:22
   **   ~~~   ** The solution for one or more of the Air Loop HVAC systems did not appear to converge
   **   ~~~   ** Air System Named = CENTRAL SYSTEM did not converge for mass flow rate
   **   ~~~   ** Check values should be zero. Most Recent values listed first.
   **   ~~~   ** Demand-to-Supply interface mass flow rate check value iteration history trace: 6.368358E-002,6.368358E-002,6.368358E-002,6.368358E-002,6.368358E-002,6.368358E-002,6.368358E-002,6.368358E-002,6.368358E-002,6.368358E-002,
   **   ~~~   ** Supply-to-demand interface deck 1 mass flow rate check value iteration history trace: 6.368358E-002,6.368358E-002,6.368358E-002,6.368358E-002,6.368358E-002,6.368358E-002,6.368358E-002,6.368358E-002,6.368358E-002,6.368358E-002,
   **   ~~~   ** Air System Named = CENTRAL SYSTEM did not converge for energy
   **   ~~~   ** Check values should be zero. Most Recent values listed first.
   **   ~~~   ** Demand-to-Supply interface energy check value iteration history trace: 1261.929956,1261.929956,1261.929956,1261.929955,1261.929955,1261.929955,1261.929955,1261.929955,1261.929955,1261.929955,
   **   ~~~   ** Supply-to-demand interface deck 1 energy check value iteration history trace: 2254.613997,2254.613997,2254.613997,2254.613997,2254.613997,2254.613997,2254.613997,2254.613997,2254.613996,2254.613996,
   ** Warning ** SimHVAC: Maximum iterations (20) exceeded for all HVAC loops, at ANNUAL, 10/22 11:00 - 11:15
   **   ~~~   ** The solution for one or more of the Air Loop HVAC systems did not appear to converge
   **   ~~~   ** Air System Named = CENTRAL SYSTEM did not converge for mass flow rate
   **   ~~~   ** Check values should be zero. Most Recent values listed first.
   **   ~~~   ** Demand-to-Supply interface mass flow rate check value iteration history trace: 5.844787E-002,5.844787E-002,5.844787E-002,5.844787E-002,5.844787E-002,5.844787E-002,5.844787E-002,5.844787E-002,5.844787E-002,5.844787E-002,
   **   ~~~   ** Supply-to-demand interface deck 1 mass flow rate check value iteration history trace: 5.844787E-002,5.844787E-002,5.844787E-002,5.844787E-002,5.844787E-002,5.844787E-002,5.844787E-002,5.844787E-002,5.844787E-002,5.844787E-002,
   **   ~~~   ** Air System Named = CENTRAL SYSTEM did not converge for energy
   **   ~~~   ** Check values should be zero. Most Recent values listed first.
   **   ~~~   ** Demand-to-Supply interface energy check value iteration history trace: 1142.721842,1142.721842,1142.721842,1142.721842,1142.721842,1142.721842,1142.721842,1142.721841,1142.721841,1142.721841,
   **   ~~~   ** Supply-to-demand interface deck 1 energy check value iteration history trace: 2067.506631,2067.506631,2067.506630,2067.506630,2067.506630,2067.506630,2067.506630,2067.506630,2067.506630,2067.506630,
   ** Warning ** SimHVAC: Maximum iterations (20) exceeded for all HVAC loops, at ANNUAL, 11/03 07:15 - 07:22
   **   ~~~   ** The solution for one or more of the Air Loop HVAC systems did not appear to converge
   **   ~~~   ** Air System Named = CENTRAL SYSTEM did not converge for mass flow rate
   **   ~~~   ** Check values should be zero. Most Recent values listed first.
   **   ~~~   ** Demand-to-Supply interface mass flow rate check value iteration history trace: 4.605440E-002,4.605440E-002,4.605440E-002,4.605440E-002,4.605440E-002,4.605440E-002,4.605440E-002,4.605440E-002,4.605440E-002,4.605440E-002,
   **   ~~~   ** Supply-to-demand interface deck 1 mass flow rate check value iteration history trace: 4.605440E-002,4.605440E-002,4.605440E-002,4.605440E-002,4.605440E-002,4.605440E-002,4.605440E-002,4.605440E-002,4.605440E-002,4.605440E-002,
   **   ~~~   ** Air System Named = CENTRAL SYSTEM did not converge for energy
   **   ~~~   ** Check values should be zero. Most Recent values listed first.
   **   ~~~   ** Demand-to-Supply interface energy check value iteration history trace: 906.857654,906.857654,906.857654,906.857653,906.857653,906.857653,906.857653,906.857653,906.857653,906.857653,
   **   ~~~   ** Supply-to-demand interface deck 1 energy check value iteration history trace: 1684.236526,1684.236526,1684.236526,1684.236526,1684.236526,1684.236526,1684.236525,1684.236525,1684.236525,1684.236525,
   ** Warning ** SimHVAC: Maximum iterations (20) exceeded for all HVAC loops, at ANNUAL, 11/04 11:45 - 12:00
   **   ~~~   ** The solution for one or more of the Air Loop HVAC systems did not appear to converge
   **   ~~~   ** Air System Named = CENTRAL SYSTEM did not converge for mass flow rate
   **   ~~~   ** Check values should be zero. Most Recent values listed first.
   **   ~~~   ** Demand-to-Supply interface mass flow rate check value iteration history trace: 5.586034E-002,5.586034E-002,5.586034E-002,5.586034E-002,5.586034E-002,5.586034E-002,5.586034E-002,5.586034E-002,5.586034E-002,5.586034E-002,
   **   ~~~   ** Supply-to-demand interface deck 1 mass flow rate check value iteration history trace: 5.586034E-002,5.586034E-002,5.586034E-002,5.586034E-002,5.586034E-002,5.586034E-002,5.586034E-002,5.586034E-002,5.586034E-002,5.586034E-002,
   **   ~~~   ** Air System Named = CENTRAL SYSTEM did not converge for energy
   **   ~~~   ** Check values should be zero. Most Recent values listed first.
   **   ~~~   ** Demand-to-Supply interface energy check value iteration history trace: 1106.891205,1106.891205,1106.891205,1106.891205,1106.891205,1106.891205,1106.891205,1106.891205,1106.891205,1106.891205,
   **   ~~~   ** Supply-to-demand interface deck 1 energy check value iteration history trace: 1950.949893,1950.949893,1950.949893,1950.949893,1950.949892,1950.949892,1950.949892,1950.949892,1950.949892,1950.949892,
   ** Warning ** SimHVAC: Maximum iterations (20) exceeded for all HVAC loops, at ANNUAL, 11/30 12:45 - 13:00
   **   ~~~   ** The solution for one or more of the Air Loop HVAC systems did not appear to converge
   **   ~~~   ** Air System Named = CENTRAL SYSTEM did not converge for mass flow rate
   **   ~~~   ** Check values should be zero. Most Recent values listed first.
   **   ~~~   ** Demand-to-Supply interface mass flow rate check value iteration history trace: 5.589214E-002,5.589214E-002,5.589214E-002,5.589214E-002,5.589214E-002,5.589214E-002,5.589214E-002,5.589214E-002,5.589214E-002,5.589214E-002,
   **   ~~~   ** Supply-to-demand interface deck 1 mass flow rate check value iteration history trace: 5.589214E-002,5.589214E-002,5.589214E-002,5.589214E-002,5.589214E-002,5.589214E-002,5.589214E-002,5.589214E-002,5.589214E-002,5.589214E-002,
   **   ~~~   ** Air System Named = CENTRAL SYSTEM did not converge for energy
   **   ~~~   ** Check values should be zero. Most Recent values listed first.
   **   ~~~   ** Demand-to-Supply interface energy check value iteration history trace: 1107.551311,1107.551311,1107.551311,1107.551311,1107.551311,1107.551311,1107.551311,1107.551311,1107.551311,1107.551311,
   **   ~~~   ** Supply-to-demand interface deck 1 energy check value iteration history trace: 1943.117072,1943.117072,1943.117072,1943.117072,1943.117072,1943.117072,1943.117072,1943.117072,1943.117072,1943.117071,
   ************* Simulation Error Summary *************
   ** Warning ** The following Report Variables were requested but not generated -- check.rdd file
   **   ~~~   ** Either the IDF did not contain these elements, the variable name is misspelled,
   **   ~~~   ** or the requested variable is an advanced output which requires Output : Diagnostics, DisplayAdvancedReportVariables;
   ************* Key=*, VarName=BASEBOARD TOTAL HEATING ENERGY, Frequency=
   ************* Key=*, VarName=WATER HEATER NATURALGAS ENERGY, Frequency=
   ************* Key=*, VarName=COOLING COIL TOTAL HEATING ENERGY, Frequency=
   ************* There are 34 unused schedules in input.
   ************* There are 388 unused week schedules in input.
   ************* There are 396 unused day schedules in input.
   ************* Use Output:Diagnostics,DisplayUnusedSchedules; to see them.
   *************
   ************* ===== Recurring Error Summary =====
   ************* The following recurring error messages occurred.
   *************
   *************  ** Warning ** "TOTAL HOT WATER LOAD" - Target water temperature should be less than or equal to the hot water temperature error continues...
   *************  **   ~~~   **   This error occurred 117195 total times;
   *************  **   ~~~   **   during Warmup 0 times;
   *************  **   ~~~   **   during Sizing 0 times.
   *************  **   ~~~   **   Max=10.336502  Min=3.283533E-004
   *************
   *************
   ************* ===== Final Error Summary =====
   ************* The following error categories occurred.  Consider correcting or noting.
   ************* Nominally Unused Constructions
   ************* ..The nominally unused constructions warning is provided to alert you to potential conditions that can cause
   ************* ..extra time during simulation. Each construction is calculated by the algorithm indicated in the HeatBalanceAlgorithm
   ************* ..object. You may remove the constructions indicated (when you use the DisplayExtraWarnings option).
   *************
   ************* EnergyPlus Warmup Error Summary. During Warmup: 1 Warning; 0 Severe Errors.
   ************* EnergyPlus Sizing Error Summary. During Sizing: 4 Warning; 0 Severe Errors.
   ************* EnergyPlus Completed Successfully-- 117226 Warning; 0 Severe Errors; Elapsed Time=00hr 05min 43.65sec
