Program Version,EnergyPlus, Version 22.2.0-c249759bad, YMD=2023.09.01 19:22,
   ************* Beginning Zone Sizing Calculations
   ** Warning ** ProcessScheduleInput: Schedule:Constant="ALWAYS ON DISCRETE", Schedule Type Limits Name="ONOFF" not found -- will not be validated
   ** Warning ** Foundation:Kiva="KIVA FOUNDATION", no Interior Horizontal Insulation Material Name defined
   **   ~~~   ** Interior Horizontal Insulation Depth will not be used.
   ** Warning ** CheckUsedConstructions: There are 15 nominally unused constructions in input.
   **   ~~~   ** Each Unused construction is shown.
   ************* Construction=INTERIOR FLOOR
   ************* Construction=INTERIOR WINDOW
   ************* Construction=EXTERIOR DOOR
   ************* Construction=INTERIOR DOOR
   ************* Construction=GABLE CONSTRUCTION
   ************* Construction=CRAWL_FLOOR
   ************* Construction=INSULATED PIPE
   ************* Construction=PLAIN PIPE
   ************* Construction=TDD PIPE
   ************* Construction=TDD DOME
   ************* Construction=TDD DIFFUSER
   ************* Construction=CRAWL WALL
   ************* Construction=CEILING-FLOOR-LAYER
   ************* Construction=SLAB CONSTRUCTION W FULL R10 INSULATION
   ************* Construction=SLAB CONSTRUCTION W FULL R5 INSULATION
   ** Warning ** GetDXCoils: Coil:Heating:DX:SingleSpeed="DX_HEATING_COIL" curve values
   **   ~~~   ** ... Defrost Energy Input Ratio Function of Temperature Curve Name = DEFROSTEIR output is not equal to 1.0 (+ or - 10%) at rated conditions.
   **   ~~~   ** ... Curve output at rated conditions = 0.152
   ************* Beginning System Sizing Calculations
   ************* Beginning Plant Sizing Calculations
   ** Warning ** Coil:WaterHeating:AirToWaterHeatPump:Wrapped "HEAT PUMP WATER HEATER EVAPORATOR": Rated air volume flow rate per watt of rated total water heating capacity is out of range
   **   ~~~   ** Min Rated Vol Flow Per Watt=[4.027E-005], Rated Vol Flow Per Watt=[1.510E-004], Max Rated Vol Flow Per Watt=[8.056E-005]. See Input-Output Reference Manual for valid range.
   ************* SizeFan: : Potential issue with equipment sizing for Fan:OnOff HEAT PUMP WATER HEATER FAN
   **   ~~~   ** User-Specified Maximum Flow Rate [m3/s] = 0.22653
   **   ~~~   ** differs from Design Size Maximum Flow Rate [m3/s] = 7.55250E-002
   **   ~~~   ** This may, or may not, indicate mismatched component sizes.
   **   ~~~   ** Verify that the value entered is intended and is consistent with other components.
   ** Warning ** Water heater = WATER HEATER TANK:  Recovery Efficiency and Energy Factor could not be calculated during the test for standard ratings
   **   ~~~   ** Setpoint was never recovered and/or heater never turned on
   ** Warning ** Check input. Pump nominal power or motor efficiency is set to 0, for pump=MAINS PRESSURE
   ** Warning ** Output:Meter: invalid Key Name="ELECTRIC_RANGE:INTERIOREQUIPMENT:ELECTRICITY" - not found.
   ** Warning ** Output:Meter: invalid Key Name="ELECTRIC_DRYER:INTERIOREQUIPMENT:ELECTRICITY" - not found.
   ** Warning ** Output:Meter: invalid Key Name="HEATRECOVERY:ELECTRICITY" - not found.
   ** Warning ** Output:Meter: invalid Key Name="HEATING:NATURALGAS" - not found.
   ** Warning ** Output:Meter: invalid Key Name="WATERSYSTEMS:NATURALGAS" - not found.
   ** Warning ** Output:Meter: invalid Key Name="PROPANE:FACILITY" - not found.
   ** Warning ** Output:Meter: invalid Key Name="HEATING:PROPANE" - not found.
   ************* Testing Individual Branch Integrity
   ************* All Branches passed integrity testing
   ************* Testing Individual Supply Air Path Integrity
   ************* All Supply Air Paths passed integrity testing
   ************* Testing Individual Return Air Path Integrity
   ************* All Return Air Paths passed integrity testing
   ************* No node connection errors were found.
   ************* Beginning Simulation
   ** Warning ** AirflowNetwork::Solver::validate_distribution: Heat pump water heater is simulated along with an AirflowNetwork but is not included in the AirflowNetwork.
   ** Warning ** CalcEquipmentFlowRates: "TOTAL HOT WATER LOAD" - Target water temperature is greater than the hot water temperature by (0.55 C)
   **   ~~~   **  Environment=EXTREME_WINTER, at Simulation time=01/08 06:00 - 06:15
   **   ~~~   ** ...target water temperature     = 53.33 C
   **   ~~~   ** ...hot water temperature        = 52.78 C
   **   ~~~   ** ...Target water temperature should be less than or equal to the hot water temperature. Verify temperature setpoints and schedules.
   ** Warning ** SimHVAC: Maximum iterations (20) exceeded for all HVAC loops, at EXTREME_WINTER, 01/13 20:00 - 20:15
   **   ~~~   ** The solution for one or more of the Air Loop HVAC systems did not appear to converge
   **   ~~~   ** Air System Named = CENTRAL SYSTEM did not converge for mass flow rate
   **   ~~~   ** Check values should be zero. Most Recent values listed first.
   **   ~~~   ** Demand-to-Supply interface mass flow rate check value iteration history trace: 9.146392E-002,9.146392E-002,9.146392E-002,9.146392E-002,9.146392E-002,9.146392E-002,9.146392E-002,9.146392E-002,9.146392E-002,9.146392E-002,
   **   ~~~   ** Supply-to-demand interface deck 1 mass flow rate check value iteration history trace: 9.146392E-002,9.146392E-002,9.146392E-002,9.146392E-002,9.146392E-002,9.146392E-002,9.146392E-002,9.146392E-002,9.146392E-002,9.146392E-002,
   **   ~~~   ** Air System Named = CENTRAL SYSTEM did not converge for energy
   **   ~~~   ** Check values should be zero. Most Recent values listed first.
   **   ~~~   ** Demand-to-Supply interface energy check value iteration history trace: 1804.483213,1804.483213,1804.483213,1804.483213,1804.483213,1804.483212,1804.483212,1804.483212,1804.483212,1804.483212,
   **   ~~~   ** Supply-to-demand interface deck 1 energy check value iteration history trace: 2714.903037,2714.903037,2714.903037,2714.903037,2714.903036,2714.903036,2714.903036,2714.903036,2714.903036,2714.903035,
   ** Warning ** SimHVAC: Maximum iterations (20) exceeded for all HVAC loops, at ANNUAL, 01/05 17:35 - 17:40
   **   ~~~   ** The solution for one or more of the Air Loop HVAC systems did not appear to converge
   **   ~~~   ** Air System Named = CENTRAL SYSTEM did not converge for mass flow rate
   **   ~~~   ** Check values should be zero. Most Recent values listed first.
   **   ~~~   ** Demand-to-Supply interface mass flow rate check value iteration history trace: 7.163403E-002,7.163403E-002,7.163403E-002,7.163403E-002,7.163403E-002,7.163403E-002,7.163403E-002,7.163403E-002,7.163403E-002,7.163403E-002,
   **   ~~~   ** Supply-to-demand interface deck 1 mass flow rate check value iteration history trace: 7.163403E-002,7.163403E-002,7.163403E-002,7.163403E-002,7.163403E-002,7.163403E-002,7.163403E-002,7.163403E-002,7.163403E-002,7.163403E-002,
   **   ~~~   ** Air System Named = CENTRAL SYSTEM did not converge for energy
   **   ~~~   ** Check values should be zero. Most Recent values listed first.
   **   ~~~   ** Demand-to-Supply interface energy check value iteration history trace: 1418.643236,1418.643236,1418.643235,1418.643235,1418.643235,1418.643235,1418.643235,1418.643235,1418.643235,1418.643235,
   **   ~~~   ** Supply-to-demand interface deck 1 energy check value iteration history trace: 2186.884079,2186.884079,2186.884079,2186.884079,2186.884079,2186.884078,2186.884078,2186.884078,2186.884078,2186.884078,
   ** Warning ** SimHVAC: Maximum iterations (20) exceeded for all HVAC loops, at ANNUAL, 02/19 10:30 - 10:34
   **   ~~~   ** The solution for one or more of the Air Loop HVAC systems did not appear to converge
   **   ~~~   ** Air System Named = CENTRAL SYSTEM did not converge for mass flow rate
   **   ~~~   ** Check values should be zero. Most Recent values listed first.
   **   ~~~   ** Demand-to-Supply interface mass flow rate check value iteration history trace: 9.198290E-002,9.198290E-002,9.198290E-002,9.198290E-002,9.198290E-002,9.198290E-002,9.198290E-002,9.198290E-002,9.198290E-002,9.198290E-002,
   **   ~~~   ** Supply-to-demand interface deck 1 mass flow rate check value iteration history trace: 9.198290E-002,9.198290E-002,9.198290E-002,9.198290E-002,9.198290E-002,9.198290E-002,9.198290E-002,9.198290E-002,9.198290E-002,9.198290E-002,
   **   ~~~   ** Air System Named = CENTRAL SYSTEM did not converge for energy
   **   ~~~   ** Check values should be zero. Most Recent values listed first.
   **   ~~~   ** Demand-to-Supply interface energy check value iteration history trace: 1822.763698,1822.763698,1822.763697,1822.763697,1822.763697,1822.763697,1822.763697,1822.763697,1822.763697,1822.763697,
   **   ~~~   ** Supply-to-demand interface deck 1 energy check value iteration history trace: 2908.419957,2908.419957,2908.419957,2908.419956,2908.419956,2908.419956,2908.419956,2908.419956,2908.419956,2908.419955,
   ** Warning ** SimHVAC: Maximum iterations (20) exceeded for all HVAC loops, at ANNUAL, 03/04 10:15 - 10:30
   **   ~~~   ** The solution for one or more of the Air Loop HVAC systems did not appear to converge
   **   ~~~   ** Air System Named = CENTRAL SYSTEM did not converge for mass flow rate
   **   ~~~   ** Check values should be zero. Most Recent values listed first.
   **   ~~~   ** Demand-to-Supply interface mass flow rate check value iteration history trace: 5.724691E-002,5.724691E-002,5.724691E-002,5.724691E-002,5.724691E-002,5.724691E-002,5.724691E-002,5.724691E-002,5.724691E-002,5.724691E-002,
   **   ~~~   ** Supply-to-demand interface deck 1 mass flow rate check value iteration history trace: 5.724691E-002,5.724691E-002,5.724691E-002,5.724691E-002,5.724691E-002,5.724691E-002,5.724691E-002,5.724691E-002,5.724691E-002,5.724691E-002,
   **   ~~~   ** Air System Named = CENTRAL SYSTEM did not converge for energy
   **   ~~~   ** Check values should be zero. Most Recent values listed first.
   **   ~~~   ** Demand-to-Supply interface energy check value iteration history trace: 1134.425645,1134.425645,1134.425644,1134.425644,1134.425644,1134.425644,1134.425644,1134.425644,1134.425644,1134.425644,
   **   ~~~   ** Supply-to-demand interface deck 1 energy check value iteration history trace: 2075.424733,2075.424733,2075.424733,2075.424733,2075.424733,2075.424733,2075.424733,2075.424733,2075.424733,2075.424732,
   ** Warning ** SimHVAC: Maximum iterations (20) exceeded for all HVAC loops, at ANNUAL, 03/29 08:00 - 08:15
   **   ~~~   ** The solution for one or more of the Air Loop HVAC systems did not appear to converge
   **   ~~~   ** Air System Named = CENTRAL SYSTEM did not converge for mass flow rate
   **   ~~~   ** Check values should be zero. Most Recent values listed first.
   **   ~~~   ** Demand-to-Supply interface mass flow rate check value iteration history trace: 4.786737E-002,4.786737E-002,4.786737E-002,4.786737E-002,4.786737E-002,4.786737E-002,4.786737E-002,4.786737E-002,4.786737E-002,4.786737E-002,
   **   ~~~   ** Supply-to-demand interface deck 1 mass flow rate check value iteration history trace: 4.786737E-002,4.786737E-002,4.786737E-002,4.786737E-002,4.786737E-002,4.786737E-002,4.786737E-002,4.786737E-002,4.786737E-002,4.786737E-002,
   **   ~~~   ** Air System Named = CENTRAL SYSTEM did not converge for energy
   **   ~~~   ** Check values should be zero. Most Recent values listed first.
   **   ~~~   ** Demand-to-Supply interface energy check value iteration history trace: 947.652242,947.652242,947.652242,947.652242,947.652242,947.652242,947.652242,947.652242,947.652242,947.652242,
   **   ~~~   ** Supply-to-demand interface deck 1 energy check value iteration history trace: 1715.058152,1715.058152,1715.058152,1715.058152,1715.058152,1715.058152,1715.058152,1715.058152,1715.058152,1715.058151,
   ** Warning ** SimHVAC: Maximum iterations (20) exceeded for all HVAC loops, at ANNUAL, 03/31 07:45 - 08:00
   **   ~~~   ** The solution for one or more of the Air Loop HVAC systems did not appear to converge
   **   ~~~   ** Air System Named = CENTRAL SYSTEM did not converge for mass flow rate
   **   ~~~   ** Check values should be zero. Most Recent values listed first.
   **   ~~~   ** Demand-to-Supply interface mass flow rate check value iteration history trace: 5.165784E-002,5.165784E-002,5.165784E-002,5.165784E-002,5.165784E-002,5.165784E-002,5.165784E-002,5.165784E-002,5.165784E-002,5.165784E-002,
   **   ~~~   ** Supply-to-demand interface deck 1 mass flow rate check value iteration history trace: 5.165784E-002,5.165784E-002,5.165784E-002,5.165784E-002,5.165784E-002,5.165784E-002,5.165784E-002,5.165784E-002,5.165784E-002,5.165784E-002,
   **   ~~~   ** Air System Named = CENTRAL SYSTEM did not converge for energy
   **   ~~~   ** Check values should be zero. Most Recent values listed first.
   **   ~~~   ** Demand-to-Supply interface energy check value iteration history trace: 1023.700553,1023.700553,1023.700553,1023.700553,1023.700553,1023.700553,1023.700553,1023.700553,1023.700553,1023.700553,
   **   ~~~   ** Supply-to-demand interface deck 1 energy check value iteration history trace: 1877.649589,1877.649589,1877.649589,1877.649589,1877.649589,1877.649589,1877.649589,1877.649589,1877.649588,1877.649588,
   **   ~~~   ** Node named ZONE INLET NODE shows oscillating temperatures across iterations with a repeated value of 36.172598
   **   ~~~   ** Node named ZONE INLET NODE temperature [C] iteration history trace (most recent first): 36.172598,36.172598,36.172598,36.172597,36.172597,36.172597,36.172597,36.172596,36.172596,36.172596,
   ** Warning ** SimHVAC: Maximum iterations (20) exceeded for all HVAC loops, at ANNUAL, 04/06 07:45 - 08:00
   **   ~~~   ** The solution for one or more of the Air Loop HVAC systems did not appear to converge
   **   ~~~   ** Air System Named = CENTRAL SYSTEM did not converge for mass flow rate
   **   ~~~   ** Check values should be zero. Most Recent values listed first.
   **   ~~~   ** Demand-to-Supply interface mass flow rate check value iteration history trace: 6.314438E-002,6.314438E-002,6.314438E-002,6.314438E-002,6.314438E-002,6.314438E-002,6.314438E-002,6.314438E-002,6.314438E-002,6.314438E-002,
   **   ~~~   ** Supply-to-demand interface deck 1 mass flow rate check value iteration history trace: 6.314438E-002,6.314438E-002,6.314438E-002,6.314438E-002,6.314438E-002,6.314438E-002,6.314438E-002,6.314438E-002,6.314438E-002,6.314438E-002,
   **   ~~~   ** Air System Named = CENTRAL SYSTEM did not converge for energy
   **   ~~~   ** Check values should be zero. Most Recent values listed first.
   **   ~~~   ** Demand-to-Supply interface energy check value iteration history trace: 1251.154334,1251.154334,1251.154334,1251.154334,1251.154334,1251.154334,1251.154334,1251.154334,1251.154333,1251.154333,
   **   ~~~   ** Supply-to-demand interface deck 1 energy check value iteration history trace: 2191.534649,2191.534649,2191.534649,2191.534649,2191.534649,2191.534648,2191.534648,2191.534648,2191.534648,2191.534648,
   ** Warning ** SimHVAC: Maximum iterations (20) exceeded for all HVAC loops, at ANNUAL, 04/08 05:15 - 05:30
   **   ~~~   ** The solution for one or more of the Air Loop HVAC systems did not appear to converge
   **   ~~~   ** Air System Named = CENTRAL SYSTEM did not converge for mass flow rate
   **   ~~~   ** Check values should be zero. Most Recent values listed first.
   **   ~~~   ** Demand-to-Supply interface mass flow rate check value iteration history trace: 5.025761E-002,5.025761E-002,5.025761E-002,5.025761E-002,5.025761E-002,5.025761E-002,5.025761E-002,5.025761E-002,5.025761E-002,5.025761E-002,
   **   ~~~   ** Supply-to-demand interface deck 1 mass flow rate check value iteration history trace: 5.025761E-002,5.025761E-002,5.025761E-002,5.025761E-002,5.025761E-002,5.025761E-002,5.025761E-002,5.025761E-002,5.025761E-002,5.025761E-002,
   **   ~~~   ** Air System Named = CENTRAL SYSTEM did not converge for energy
   **   ~~~   ** Check values should be zero. Most Recent values listed first.
   **   ~~~   ** Demand-to-Supply interface energy check value iteration history trace: 992.971140,992.971140,992.971140,992.971140,992.971140,992.971140,992.971140,992.971140,992.971140,992.971140,
   **   ~~~   ** Supply-to-demand interface deck 1 energy check value iteration history trace: 1748.696473,1748.696472,1748.696472,1748.696472,1748.696472,1748.696472,1748.696472,1748.696472,1748.696472,1748.696472,
   ** Warning ** SimHVAC: Maximum iterations (20) exceeded for all HVAC loops, at ANNUAL, 04/08 10:24 - 10:26
   **   ~~~   ** The solution for one or more of the Air Loop HVAC systems did not appear to converge
   **   ~~~   ** Air System Named = CENTRAL SYSTEM did not converge for mass flow rate
   **   ~~~   ** Check values should be zero. Most Recent values listed first.
   **   ~~~   ** Demand-to-Supply interface mass flow rate check value iteration history trace: 5.573118E-002,5.573118E-002,5.573118E-002,5.573118E-002,5.573118E-002,5.573118E-002,5.573118E-002,5.573118E-002,5.573118E-002,5.573118E-002,
   **   ~~~   ** Supply-to-demand interface deck 1 mass flow rate check value iteration history trace: 5.573118E-002,5.573118E-002,5.573118E-002,5.573118E-002,5.573118E-002,5.573118E-002,5.573118E-002,5.573118E-002,5.573118E-002,5.573118E-002,
   **   ~~~   ** Air System Named = CENTRAL SYSTEM did not converge for energy
   **   ~~~   ** Check values should be zero. Most Recent values listed first.
   **   ~~~   ** Demand-to-Supply interface energy check value iteration history trace: 1101.683602,1101.683601,1101.683601,1101.683601,1101.683601,1101.683601,1101.683600,1101.683600,1101.683600,1101.683600,
   **   ~~~   ** Supply-to-demand interface deck 1 energy check value iteration history trace: 1988.369810,1988.369809,1988.369809,1988.369809,1988.369808,1988.369808,1988.369808,1988.369807,1988.369807,1988.369807,
   **   ~~~   ** Node named ZONE INLET NODE shows oscillating temperatures across iterations with a repeated value of 35.505882
   **   ~~~   ** Node named ZONE INLET NODE temperature [C] iteration history trace (most recent first): 35.505882,35.505882,35.505882,35.505882,35.505881,35.505881,35.505881,35.505880,35.505880,35.505880,
   ** Warning ** SimHVAC: Maximum iterations (20) exceeded for all HVAC loops, at ANNUAL, 04/09 07:45 - 07:47
   **   ~~~   ** The solution for one or more of the Air Loop HVAC systems did not appear to converge
   **   ~~~   ** Air System Named = CENTRAL SYSTEM did not converge for mass flow rate
   **   ~~~   ** Check values should be zero. Most Recent values listed first.
   **   ~~~   ** Demand-to-Supply interface mass flow rate check value iteration history trace: 6.207611E-002,6.207611E-002,6.207611E-002,6.207611E-002,6.207611E-002,6.207611E-002,6.207611E-002,6.207611E-002,6.207611E-002,6.207611E-002,
   **   ~~~   ** Supply-to-demand interface deck 1 mass flow rate check value iteration history trace: 6.207611E-002,6.207611E-002,6.207611E-002,6.207611E-002,6.207611E-002,6.207611E-002,6.207611E-002,6.207611E-002,6.207611E-002,6.207611E-002,
   **   ~~~   ** Air System Named = CENTRAL SYSTEM did not converge for energy
   **   ~~~   ** Check values should be zero. Most Recent values listed first.
   **   ~~~   ** Demand-to-Supply interface energy check value iteration history trace: 1230.219841,1230.219841,1230.219841,1230.219841,1230.219841,1230.219841,1230.219841,1230.219840,1230.219840,1230.219840,
   **   ~~~   ** Supply-to-demand interface deck 1 energy check value iteration history trace: 2118.580281,2118.580281,2118.580281,2118.580281,2118.580281,2118.580281,2118.580281,2118.580281,2118.580281,2118.580281,
   ** Warning ** SimHVAC: Maximum iterations (20) exceeded for all HVAC loops, at ANNUAL, 04/15 09:00 - 09:01
   **   ~~~   ** The solution for one or more of the Air Loop HVAC systems did not appear to converge
   **   ~~~   ** Air System Named = CENTRAL SYSTEM did not converge for mass flow rate
   **   ~~~   ** Check values should be zero. Most Recent values listed first.
   **   ~~~   ** Demand-to-Supply interface mass flow rate check value iteration history trace: 8.007921E-002,8.007921E-002,8.007921E-002,8.007921E-002,8.007921E-002,8.007921E-002,8.007921E-002,8.007921E-002,8.007921E-002,8.007921E-002,
   **   ~~~   ** Supply-to-demand interface deck 1 mass flow rate check value iteration history trace: 8.007921E-002,8.007921E-002,8.007921E-002,8.007921E-002,8.007921E-002,8.007921E-002,8.007921E-002,8.007921E-002,8.007921E-002,8.007921E-002,
   **   ~~~   ** Air System Named = CENTRAL SYSTEM did not converge for energy
   **   ~~~   ** Check values should be zero. Most Recent values listed first.
   **   ~~~   ** Demand-to-Supply interface energy check value iteration history trace: 1586.961718,1586.961718,1586.961718,1586.961718,1586.961718,1586.961718,1586.961718,1586.961718,1586.961718,1586.961717,
   **   ~~~   ** Supply-to-demand interface deck 1 energy check value iteration history trace: 2719.628549,2719.628549,2719.628549,2719.628549,2719.628549,2719.628549,2719.628549,2719.628548,2719.628548,2719.628548,
   ** Warning ** SimHVAC: Maximum iterations (20) exceeded for all HVAC loops, at ANNUAL, 04/30 11:20 - 11:25
   **   ~~~   ** The solution for one or more of the Air Loop HVAC systems did not appear to converge
   **   ~~~   ** Air System Named = CENTRAL SYSTEM did not converge for mass flow rate
   **   ~~~   ** Check values should be zero. Most Recent values listed first.
   **   ~~~   ** Demand-to-Supply interface mass flow rate check value iteration history trace: 5.766545E-002,5.766545E-002,5.766545E-002,5.766545E-002,5.766545E-002,5.766545E-002,5.766545E-002,5.766545E-002,5.766545E-002,5.766545E-002,
   **   ~~~   ** Supply-to-demand interface deck 1 mass flow rate check value iteration history trace: 5.766545E-002,5.766545E-002,5.766545E-002,5.766545E-002,5.766545E-002,5.766545E-002,5.766545E-002,5.766545E-002,5.766545E-002,5.766545E-002,
   **   ~~~   ** Air System Named = CENTRAL SYSTEM did not converge for energy
   **   ~~~   ** Check values should be zero. Most Recent values listed first.
   **   ~~~   ** Demand-to-Supply interface energy check value iteration history trace: 1139.222802,1139.222802,1139.222802,1139.222802,1139.222802,1139.222802,1139.222802,1139.222802,1139.222802,1139.222802,
   **   ~~~   ** Supply-to-demand interface deck 1 energy check value iteration history trace: 2076.472648,2076.472648,2076.472648,2076.472648,2076.472648,2076.472648,2076.472648,2076.472648,2076.472648,2076.472648,
   ** Warning ** SimHVAC: Maximum iterations (20) exceeded for all HVAC loops, at ANNUAL, 05/13 06:38 - 06:45
   **   ~~~   ** The solution for one or more of the Air Loop HVAC systems did not appear to converge
   **   ~~~   ** Air System Named = CENTRAL SYSTEM did not converge for mass flow rate
   **   ~~~   ** Check values should be zero. Most Recent values listed first.
   **   ~~~   ** Demand-to-Supply interface mass flow rate check value iteration history trace: 0.132961,0.132961,0.132961,0.132961,0.132961,0.132961,0.132961,0.132961,0.132961,0.132961,
   **   ~~~   ** Supply-to-demand interface deck 1 mass flow rate check value iteration history trace: 0.132961,0.132961,0.132961,0.132961,0.132961,0.132961,0.132961,0.132961,0.132961,0.132961,
   **   ~~~   ** Air System Named = CENTRAL SYSTEM did not converge for energy
   **   ~~~   ** Check values should be zero. Most Recent values listed first.
   **   ~~~   ** Demand-to-Supply interface energy check value iteration history trace: 3144.618093,3144.618093,3144.618094,3144.618094,3144.618094,3144.618094,3144.618095,3144.618095,3144.618095,3144.618095,
   **   ~~~   ** Supply-to-demand interface deck 1 energy check value iteration history trace: 1785.886647,1785.886647,1785.886648,1785.886648,1785.886648,1785.886648,1785.886648,1785.886648,1785.886649,1785.886649,
   ** Warning ** SimHVAC: Maximum iterations (20) exceeded for all HVAC loops, at ANNUAL, 10/04 07:45 - 07:48
   **   ~~~   ** The solution for one or more of the Air Loop HVAC systems did not appear to converge
   **   ~~~   ** Air System Named = CENTRAL SYSTEM did not converge for mass flow rate
   **   ~~~   ** Check values should be zero. Most Recent values listed first.
   **   ~~~   ** Demand-to-Supply interface mass flow rate check value iteration history trace: 6.164786E-002,6.164786E-002,6.164786E-002,6.164786E-002,6.164786E-002,6.164786E-002,6.164786E-002,6.164786E-002,6.164786E-002,6.164786E-002,
   **   ~~~   ** Supply-to-demand interface deck 1 mass flow rate check value iteration history trace: 6.164786E-002,6.164786E-002,6.164786E-002,6.164786E-002,6.164786E-002,6.164786E-002,6.164786E-002,6.164786E-002,6.164786E-002,6.164786E-002,
   **   ~~~   ** Air System Named = CENTRAL SYSTEM did not converge for energy
   **   ~~~   ** Check values should be zero. Most Recent values listed first.
   **   ~~~   ** Demand-to-Supply interface energy check value iteration history trace: 1217.626216,1217.626215,1217.626215,1217.626215,1217.626215,1217.626215,1217.626215,1217.626215,1217.626215,1217.626215,
   **   ~~~   ** Supply-to-demand interface deck 1 energy check value iteration history trace: 2136.371778,2136.371778,2136.371778,2136.371777,2136.371777,2136.371777,2136.371777,2136.371777,2136.371777,2136.371777,
   ************* Simulation Error Summary *************
   ** Warning ** The following Report Variables were requested but not generated -- check.rdd file
   **   ~~~   ** Either the IDF did not contain these elements, the variable name is misspelled,
   **   ~~~   ** or the requested variable is an advanced output which requires Output : Diagnostics, DisplayAdvancedReportVariables;
   ************* Key=*, VarName=BASEBOARD TOTAL HEATING ENERGY, Frequency=
   ************* Key=*, VarName=WATER HEATER NATURALGAS ENERGY, Frequency=
   ************* Key=*, VarName=COOLING COIL TOTAL HEATING ENERGY, Frequency=
   ************* There are 34 unused schedules in input.
   ************* There are 388 unused week schedules in input.
   ************* There are 396 unused day schedules in input.
   ************* Use Output:Diagnostics,DisplayUnusedSchedules; to see them.
   *************
   ************* ===== Recurring Error Summary =====
   ************* The following recurring error messages occurred.
   *************
   *************  ** Warning ** "TOTAL HOT WATER LOAD" - Target water temperature should be less than or equal to the hot water temperature error continues...
   *************  **   ~~~   **   This error occurred 143183 total times;
   *************  **   ~~~   **   during Warmup 0 times;
   *************  **   ~~~   **   during Sizing 0 times.
   *************  **   ~~~   **   Max=9.959953  Min=1.106372E-003
   *************
   *************  ** Warning ** SimHVAC: Exceeding Maximum iterations for all HVAC loops, during ANNUAL continues
   *************  **   ~~~   **   This error occurred 8 total times;
   *************  **   ~~~   **   during Warmup 0 times;
   *************  **   ~~~   **   during Sizing 0 times.
   *************
   *************
   ************* ===== Final Error Summary =====
   ************* The following error categories occurred.  Consider correcting or noting.
   ************* Nominally Unused Constructions
   ************* ..The nominally unused constructions warning is provided to alert you to potential conditions that can cause
   ************* ..extra time during simulation. Each construction is calculated by the algorithm indicated in the HeatBalanceAlgorithm
   ************* ..object. You may remove the constructions indicated (when you use the DisplayExtraWarnings option).
   *************
   ************* EnergyPlus Warmup Error Summary. During Warmup: 1 Warning; 0 Severe Errors.
   ************* EnergyPlus Sizing Error Summary. During Sizing: 4 Warning; 0 Severe Errors.
   ************* EnergyPlus Completed Successfully-- 143222 Warning; 0 Severe Errors; Elapsed Time=00hr 01min 44.23sec
