Program Version,EnergyPlus, Version 22.2.0-c249759bad, YMD=2023.09.01 16:57,
   ************* Beginning Zone Sizing Calculations
   ** Warning ** ProcessScheduleInput: Schedule:Constant="ALWAYS ON DISCRETE", Schedule Type Limits Name="ONOFF" not found -- will not be validated
   ** Warning ** Foundation:Kiva="KIVA FOUNDATION", no Interior Horizontal Insulation Material Name defined
   **   ~~~   ** Interior Horizontal Insulation Depth will not be used.
   ** Warning ** CheckUsedConstructions: There are 15 nominally unused constructions in input.
   **   ~~~   ** Each Unused construction is shown.
   ************* Construction=INTERIOR FLOOR
   ************* Construction=INTERIOR WINDOW
   ************* Construction=EXTERIOR DOOR
   ************* Construction=INTERIOR DOOR
   ************* Construction=GABLE CONSTRUCTION
   ************* Construction=CRAWL_FLOOR
   ************* Construction=INSULATED PIPE
   ************* Construction=PLAIN PIPE
   ************* Construction=TDD PIPE
   ************* Construction=TDD DOME
   ************* Construction=TDD DIFFUSER
   ************* Construction=CRAWL WALL
   ************* Construction=CEILING-FLOOR-LAYER
   ************* Construction=SLAB CONSTRUCTION W FULL R10 INSULATION
   ************* Construction=SLAB CONSTRUCTION W FULL R5 INSULATION
   ** Warning ** GetDXCoils: Coil:Heating:DX:SingleSpeed="DX_HEATING_COIL" curve values
   **   ~~~   ** ... Defrost Energy Input Ratio Function of Temperature Curve Name = DEFROSTEIR output is not equal to 1.0 (+ or - 10%) at rated conditions.
   **   ~~~   ** ... Curve output at rated conditions = 0.152
   ************* Beginning System Sizing Calculations
   ************* Beginning Plant Sizing Calculations
   ** Warning ** SizeDXCoil Coil:Cooling:DX:SingleSpeed DX_COOLING_COIL
   **   ~~~   ** ...Gross Rated Total Cooling Capacity [W] will be limited by the maximum rated volume flow per rated total capacity ratio.
   **   ~~~   ** ...DX coil volume flow rate ( m3/s ) = 0.481572
   **   ~~~   ** ...Requested capacity ( W ) = 7678.673
   **   ~~~   ** ...Requested flow/capacity ratio ( m3/s/W ) = 6.271E-005
   **   ~~~   ** ...Maximum flow/capacity ratio ( m3/s/W ) = 6.041E-005
   **   ~~~   ** ...Adjusted capacity ( W ) = 7971.742
   ** Warning ** Coil:WaterHeating:AirToWaterHeatPump:Wrapped "HEAT PUMP WATER HEATER EVAPORATOR": Rated air volume flow rate per watt of rated total water heating capacity is out of range
   **   ~~~   ** Min Rated Vol Flow Per Watt=[4.027E-005], Rated Vol Flow Per Watt=[1.510E-004], Max Rated Vol Flow Per Watt=[8.056E-005]. See Input-Output Reference Manual for valid range.
   ************* SizeFan: : Potential issue with equipment sizing for Fan:OnOff HEAT PUMP WATER HEATER FAN
   **   ~~~   ** User-Specified Maximum Flow Rate [m3/s] = 0.22653
   **   ~~~   ** differs from Design Size Maximum Flow Rate [m3/s] = 7.55250E-002
   **   ~~~   ** This may, or may not, indicate mismatched component sizes.
   **   ~~~   ** Verify that the value entered is intended and is consistent with other components.
   ** Warning ** Water heater = WATER HEATER TANK:  Recovery Efficiency and Energy Factor could not be calculated during the test for standard ratings
   **   ~~~   ** Setpoint was never recovered and/or heater never turned on
   ** Warning ** Check input. Pump nominal power or motor efficiency is set to 0, for pump=MAINS PRESSURE
   ** Warning ** Output:Meter: invalid Key Name="ELECTRIC_RANGE:INTERIOREQUIPMENT:ELECTRICITY" - not found.
   ** Warning ** Output:Meter: invalid Key Name="ELECTRIC_DRYER:INTERIOREQUIPMENT:ELECTRICITY" - not found.
   ** Warning ** Output:Meter: invalid Key Name="HEATRECOVERY:ELECTRICITY" - not found.
   ** Warning ** Output:Meter: invalid Key Name="HEATING:NATURALGAS" - not found.
   ** Warning ** Output:Meter: invalid Key Name="WATERSYSTEMS:NATURALGAS" - not found.
   ** Warning ** Output:Meter: invalid Key Name="PROPANE:FACILITY" - not found.
   ** Warning ** Output:Meter: invalid Key Name="HEATING:PROPANE" - not found.
   ************* Testing Individual Branch Integrity
   ************* All Branches passed integrity testing
   ************* Testing Individual Supply Air Path Integrity
   ************* All Supply Air Paths passed integrity testing
   ************* Testing Individual Return Air Path Integrity
   ************* All Return Air Paths passed integrity testing
   ************* No node connection errors were found.
   ************* Beginning Simulation
   ** Warning ** AirflowNetwork::Solver::validate_distribution: Heat pump water heater is simulated along with an AirflowNetwork but is not included in the AirflowNetwork.
   ** Warning ** CalcEquipmentFlowRates: "TOTAL HOT WATER LOAD" - Target water temperature is greater than the hot water temperature by (0.61 C)
   **   ~~~   **  Environment=EXTREME_WINTER, at Simulation time=12/22 06:00 - 06:15
   **   ~~~   ** ...target water temperature     = 53.33 C
   **   ~~~   ** ...hot water temperature        = 52.72 C
   **   ~~~   ** ...Target water temperature should be less than or equal to the hot water temperature. Verify temperature setpoints and schedules.
   ** Warning ** SimHVAC: Maximum iterations (20) exceeded for all HVAC loops, at EXTREME_WINTER, 01/02 00:23 - 00:30
   **   ~~~   ** The solution for one or more of the Air Loop HVAC systems did not appear to converge
   **   ~~~   ** Air System Named = CENTRAL SYSTEM did not converge for mass flow rate
   **   ~~~   ** Check values should be zero. Most Recent values listed first.
   **   ~~~   ** Demand-to-Supply interface mass flow rate check value iteration history trace: 8.180209E-002,8.180209E-002,8.180209E-002,8.180209E-002,8.180209E-002,8.180209E-002,8.180209E-002,8.180209E-002,8.180209E-002,8.180209E-002,
   **   ~~~   ** Supply-to-demand interface deck 1 mass flow rate check value iteration history trace: 8.180209E-002,8.180209E-002,8.180209E-002,8.180209E-002,8.180209E-002,8.180209E-002,8.180209E-002,8.180209E-002,8.180209E-002,8.180209E-002,
   **   ~~~   ** Air System Named = CENTRAL SYSTEM did not converge for energy
   **   ~~~   ** Check values should be zero. Most Recent values listed first.
   **   ~~~   ** Demand-to-Supply interface energy check value iteration history trace: 1527.552810,1527.552810,1527.552810,1527.552810,1527.552810,1527.552810,1527.552810,1527.552810,1527.552810,1527.552810,
   **   ~~~   ** Supply-to-demand interface deck 1 energy check value iteration history trace: 2347.525969,2347.525968,2347.525968,2347.525968,2347.525968,2347.525968,2347.525968,2347.525968,2347.525968,2347.525967,
   ** Warning ** SimHVAC: Maximum iterations (20) exceeded for all HVAC loops, at ANNUAL, 01/10 07:53 - 08:00
   **   ~~~   ** The solution for one or more of the Air Loop HVAC systems did not appear to converge
   **   ~~~   ** Air System Named = CENTRAL SYSTEM did not converge for mass flow rate
   **   ~~~   ** Check values should be zero. Most Recent values listed first.
   **   ~~~   ** Demand-to-Supply interface mass flow rate check value iteration history trace: 6.143834E-002,6.143834E-002,6.143834E-002,6.143834E-002,6.143834E-002,6.143834E-002,6.143834E-002,6.143834E-002,6.143834E-002,6.143834E-002,
   **   ~~~   ** Supply-to-demand interface deck 1 mass flow rate check value iteration history trace: 6.143834E-002,6.143834E-002,6.143834E-002,6.143834E-002,6.143834E-002,6.143834E-002,6.143834E-002,6.143834E-002,6.143834E-002,6.143834E-002,
   **   ~~~   ** Air System Named = CENTRAL SYSTEM did not converge for energy
   **   ~~~   ** Check values should be zero. Most Recent values listed first.
   **   ~~~   ** Demand-to-Supply interface energy check value iteration history trace: 1217.086780,1217.086780,1217.086779,1217.086779,1217.086779,1217.086779,1217.086779,1217.086779,1217.086779,1217.086779,
   **   ~~~   ** Supply-to-demand interface deck 1 energy check value iteration history trace: 2110.140226,2110.140225,2110.140225,2110.140225,2110.140225,2110.140225,2110.140225,2110.140225,2110.140225,2110.140225,
   ** Warning ** SimHVAC: Maximum iterations (20) exceeded for all HVAC loops, at ANNUAL, 01/15 08:30 - 08:45
   **   ~~~   ** The solution for one or more of the Air Loop HVAC systems did not appear to converge
   **   ~~~   ** Air System Named = CENTRAL SYSTEM did not converge for mass flow rate
   **   ~~~   ** Check values should be zero. Most Recent values listed first.
   **   ~~~   ** Demand-to-Supply interface mass flow rate check value iteration history trace: 6.179902E-002,6.179902E-002,6.179902E-002,6.179902E-002,6.179902E-002,6.179902E-002,6.179902E-002,6.179902E-002,6.179902E-002,6.179902E-002,
   **   ~~~   ** Supply-to-demand interface deck 1 mass flow rate check value iteration history trace: 6.179902E-002,6.179902E-002,6.179902E-002,6.179902E-002,6.179902E-002,6.179902E-002,6.179902E-002,6.179902E-002,6.179902E-002,6.179902E-002,
   **   ~~~   ** Air System Named = CENTRAL SYSTEM did not converge for energy
   **   ~~~   ** Check values should be zero. Most Recent values listed first.
   **   ~~~   ** Demand-to-Supply interface energy check value iteration history trace: 1225.129484,1225.129484,1225.129484,1225.129484,1225.129484,1225.129484,1225.129484,1225.129484,1225.129484,1225.129483,
   **   ~~~   ** Supply-to-demand interface deck 1 energy check value iteration history trace: 2098.106932,2098.106932,2098.106931,2098.106931,2098.106931,2098.106931,2098.106931,2098.106931,2098.106931,2098.106931,
   ** Warning ** SimHVAC: Maximum iterations (20) exceeded for all HVAC loops, at ANNUAL, 01/15 10:26 - 10:28
   **   ~~~   ** The solution for one or more of the Air Loop HVAC systems did not appear to converge
   **   ~~~   ** Air System Named = CENTRAL SYSTEM did not converge for mass flow rate
   **   ~~~   ** Check values should be zero. Most Recent values listed first.
   **   ~~~   ** Demand-to-Supply interface mass flow rate check value iteration history trace: 6.608320E-002,6.608320E-002,6.608320E-002,6.608320E-002,6.608320E-002,6.608320E-002,6.608320E-002,6.608320E-002,6.608320E-002,6.608320E-002,
   **   ~~~   ** Supply-to-demand interface deck 1 mass flow rate check value iteration history trace: 6.608320E-002,6.608320E-002,6.608320E-002,6.608320E-002,6.608320E-002,6.608320E-002,6.608320E-002,6.608320E-002,6.608320E-002,6.608320E-002,
   **   ~~~   ** Air System Named = CENTRAL SYSTEM did not converge for energy
   **   ~~~   ** Check values should be zero. Most Recent values listed first.
   **   ~~~   ** Demand-to-Supply interface energy check value iteration history trace: 1302.844875,1302.844875,1302.844875,1302.844875,1302.844875,1302.844875,1302.844875,1302.844875,1302.844875,1302.844875,
   **   ~~~   ** Supply-to-demand interface deck 1 energy check value iteration history trace: 2254.251013,2254.251013,2254.251013,2254.251013,2254.251013,2254.251013,2254.251013,2254.251012,2254.251012,2254.251012,
   ** Warning ** SimHVAC: Maximum iterations (20) exceeded for all HVAC loops, at ANNUAL, 01/28 10:20 - 10:22
   **   ~~~   ** The solution for one or more of the Air Loop HVAC systems did not appear to converge
   **   ~~~   ** Air System Named = CENTRAL SYSTEM did not converge for mass flow rate
   **   ~~~   ** Check values should be zero. Most Recent values listed first.
   **   ~~~   ** Demand-to-Supply interface mass flow rate check value iteration history trace: 5.418961E-002,5.418961E-002,5.418961E-002,5.418961E-002,5.418961E-002,5.418961E-002,5.418961E-002,5.418961E-002,5.418961E-002,5.418961E-002,
   **   ~~~   ** Supply-to-demand interface deck 1 mass flow rate check value iteration history trace: 5.418961E-002,5.418961E-002,5.418961E-002,5.418961E-002,5.418961E-002,5.418961E-002,5.418961E-002,5.418961E-002,5.418961E-002,5.418961E-002,
   **   ~~~   ** Air System Named = CENTRAL SYSTEM did not converge for energy
   **   ~~~   ** Check values should be zero. Most Recent values listed first.
   **   ~~~   ** Demand-to-Supply interface energy check value iteration history trace: 1068.842198,1068.842197,1068.842197,1068.842197,1068.842197,1068.842197,1068.842197,1068.842197,1068.842197,1068.842197,
   **   ~~~   ** Supply-to-demand interface deck 1 energy check value iteration history trace: 1910.945001,1910.945001,1910.945001,1910.945001,1910.945001,1910.945001,1910.945001,1910.945001,1910.945001,1910.945001,
   ** Warning ** SimHVAC: Maximum iterations (20) exceeded for all HVAC loops, at ANNUAL, 02/01 08:20 - 08:25
   **   ~~~   ** The solution for one or more of the Air Loop HVAC systems did not appear to converge
   **   ~~~   ** Air System Named = CENTRAL SYSTEM did not converge for mass flow rate
   **   ~~~   ** Check values should be zero. Most Recent values listed first.
   **   ~~~   ** Demand-to-Supply interface mass flow rate check value iteration history trace: 5.844157E-002,5.844157E-002,5.844157E-002,5.844157E-002,5.844157E-002,5.844157E-002,5.844157E-002,5.844157E-002,5.844157E-002,5.844157E-002,
   **   ~~~   ** Supply-to-demand interface deck 1 mass flow rate check value iteration history trace: 5.844157E-002,5.844157E-002,5.844157E-002,5.844157E-002,5.844157E-002,5.844157E-002,5.844157E-002,5.844157E-002,5.844157E-002,5.844157E-002,
   **   ~~~   ** Air System Named = CENTRAL SYSTEM did not converge for energy
   **   ~~~   ** Check values should be zero. Most Recent values listed first.
   **   ~~~   ** Demand-to-Supply interface energy check value iteration history trace: 1154.723422,1154.723422,1154.723422,1154.723422,1154.723422,1154.723422,1154.723422,1154.723422,1154.723422,1154.723422,
   **   ~~~   ** Supply-to-demand interface deck 1 energy check value iteration history trace: 1998.090399,1998.090399,1998.090399,1998.090399,1998.090399,1998.090398,1998.090398,1998.090398,1998.090398,1998.090398,
   ** Warning ** SimHVAC: Maximum iterations (20) exceeded for all HVAC loops, at ANNUAL, 02/22 07:00 - 07:08
   **   ~~~   ** The solution for one or more of the Air Loop HVAC systems did not appear to converge
   **   ~~~   ** Air System Named = CENTRAL SYSTEM did not converge for mass flow rate
   **   ~~~   ** Check values should be zero. Most Recent values listed first.
   **   ~~~   ** Demand-to-Supply interface mass flow rate check value iteration history trace: 7.164690E-002,7.164690E-002,7.164690E-002,7.164690E-002,7.164690E-002,7.164690E-002,7.164690E-002,7.164690E-002,7.164690E-002,7.164690E-002,
   **   ~~~   ** Supply-to-demand interface deck 1 mass flow rate check value iteration history trace: 7.164690E-002,7.164690E-002,7.164690E-002,7.164690E-002,7.164690E-002,7.164690E-002,7.164690E-002,7.164690E-002,7.164690E-002,7.164690E-002,
   **   ~~~   ** Air System Named = CENTRAL SYSTEM did not converge for energy
   **   ~~~   ** Check values should be zero. Most Recent values listed first.
   **   ~~~   ** Demand-to-Supply interface energy check value iteration history trace: 1419.491237,1419.491237,1419.491237,1419.491237,1419.491237,1419.491237,1419.491236,1419.491236,1419.491236,1419.491236,
   **   ~~~   ** Supply-to-demand interface deck 1 energy check value iteration history trace: 2421.350082,2421.350082,2421.350082,2421.350082,2421.350082,2421.350082,2421.350082,2421.350082,2421.350082,2421.350082,
   ** Warning ** SimHVAC: Maximum iterations (20) exceeded for all HVAC loops, at ANNUAL, 04/05 08:03 - 08:04
   **   ~~~   ** The solution for one or more of the Air Loop HVAC systems did not appear to converge
   **   ~~~   ** Air System Named = CENTRAL SYSTEM did not converge for mass flow rate
   **   ~~~   ** Check values should be zero. Most Recent values listed first.
   **   ~~~   ** Demand-to-Supply interface mass flow rate check value iteration history trace: 0.279353,0.279353,0.279353,0.279353,0.279353,0.279353,0.279353,0.279353,0.279353,0.279353,
   **   ~~~   ** Supply-to-demand interface deck 1 mass flow rate check value iteration history trace: 0.279353,0.279353,0.279353,0.279353,0.279353,0.279353,0.279353,0.279353,0.279353,0.279353,
   **   ~~~   ** Air System Named = CENTRAL SYSTEM did not converge for energy
   **   ~~~   ** Check values should be zero. Most Recent values listed first.
   **   ~~~   ** Demand-to-Supply interface energy check value iteration history trace: 6612.408226,6612.408227,6612.408229,6612.408230,6612.408232,6612.408233,6612.408235,6612.408236,6612.408237,6612.408239,
   **   ~~~   ** Supply-to-demand interface deck 1 energy check value iteration history trace: 3286.994990,3286.994990,3286.994991,3286.994992,3286.994992,3286.994993,3286.994994,3286.994995,3286.994995,3286.994996,
   ** Warning ** SimHVAC: Maximum iterations (20) exceeded for all HVAC loops, at ANNUAL, 04/07 11:30 - 11:45
   **   ~~~   ** The solution for one or more of the Air Loop HVAC systems did not appear to converge
   **   ~~~   ** Air System Named = CENTRAL SYSTEM did not converge for mass flow rate
   **   ~~~   ** Check values should be zero. Most Recent values listed first.
   **   ~~~   ** Demand-to-Supply interface mass flow rate check value iteration history trace: 0.153109,0.153109,0.153109,0.153109,0.153109,0.153109,0.153109,0.153109,0.153109,0.153109,
   **   ~~~   ** Supply-to-demand interface deck 1 mass flow rate check value iteration history trace: 0.153109,0.153109,0.153109,0.153109,0.153109,0.153109,0.153109,0.153109,0.153109,0.153109,
   **   ~~~   ** Air System Named = CENTRAL SYSTEM did not converge for energy
   **   ~~~   ** Check values should be zero. Most Recent values listed first.
   **   ~~~   ** Demand-to-Supply interface energy check value iteration history trace: 3698.005432,3698.005433,3698.005433,3698.005433,3698.005433,3698.005433,3698.005434,3698.005434,3698.005434,3698.005434,
   **   ~~~   ** Supply-to-demand interface deck 1 energy check value iteration history trace: 1638.118914,1638.118914,1638.118914,1638.118915,1638.118915,1638.118915,1638.118915,1638.118915,1638.118915,1638.118915,
   ** Warning ** SimHVAC: Maximum iterations (20) exceeded for all HVAC loops, at ANNUAL, 04/14 06:15 - 06:30
   **   ~~~   ** The solution for one or more of the Air Loop HVAC systems did not appear to converge
   **   ~~~   ** Air System Named = CENTRAL SYSTEM did not converge for mass flow rate
   **   ~~~   ** Check values should be zero. Most Recent values listed first.
   **   ~~~   ** Demand-to-Supply interface mass flow rate check value iteration history trace: 6.737323E-002,6.737323E-002,6.737323E-002,6.737323E-002,6.737323E-002,6.737323E-002,6.737323E-002,6.737323E-002,6.737323E-002,6.737323E-002,
   **   ~~~   ** Supply-to-demand interface deck 1 mass flow rate check value iteration history trace: 6.737323E-002,6.737323E-002,6.737323E-002,6.737323E-002,6.737323E-002,6.737323E-002,6.737323E-002,6.737323E-002,6.737323E-002,6.737323E-002,
   **   ~~~   ** Air System Named = CENTRAL SYSTEM did not converge for energy
   **   ~~~   ** Check values should be zero. Most Recent values listed first.
   **   ~~~   ** Demand-to-Supply interface energy check value iteration history trace: 1335.074038,1335.074038,1335.074038,1335.074038,1335.074038,1335.074038,1335.074038,1335.074038,1335.074038,1335.074038,
   **   ~~~   ** Supply-to-demand interface deck 1 energy check value iteration history trace: 2260.922939,2260.922939,2260.922939,2260.922939,2260.922938,2260.922938,2260.922938,2260.922938,2260.922938,2260.922938,
   ** Warning ** SimHVAC: Maximum iterations (20) exceeded for all HVAC loops, at ANNUAL, 04/14 06:15 - 06:19
   **   ~~~   ** The solution for one or more of the Air Loop HVAC systems did not appear to converge
   **   ~~~   ** Air System Named = CENTRAL SYSTEM did not converge for mass flow rate
   **   ~~~   ** Check values should be zero. Most Recent values listed first.
   **   ~~~   ** Demand-to-Supply interface mass flow rate check value iteration history trace: 6.736945E-002,6.736945E-002,6.736945E-002,6.736945E-002,6.736945E-002,6.736945E-002,6.736945E-002,6.736945E-002,6.736945E-002,6.736945E-002,
   **   ~~~   ** Supply-to-demand interface deck 1 mass flow rate check value iteration history trace: 6.736945E-002,6.736945E-002,6.736945E-002,6.736945E-002,6.736945E-002,6.736945E-002,6.736945E-002,6.736945E-002,6.736945E-002,6.736945E-002,
   **   ~~~   ** Air System Named = CENTRAL SYSTEM did not converge for energy
   **   ~~~   ** Check values should be zero. Most Recent values listed first.
   **   ~~~   ** Demand-to-Supply interface energy check value iteration history trace: 1334.999683,1334.999683,1334.999683,1334.999683,1334.999683,1334.999683,1334.999683,1334.999683,1334.999683,1334.999683,
   **   ~~~   ** Supply-to-demand interface deck 1 energy check value iteration history trace: 2260.734833,2260.734832,2260.734832,2260.734832,2260.734832,2260.734832,2260.734832,2260.734832,2260.734832,2260.734832,
   ** Warning ** SimHVAC: Maximum iterations (20) exceeded for all HVAC loops, at ANNUAL, 11/14 07:15 - 07:30
   **   ~~~   ** The solution for one or more of the Air Loop HVAC systems did not appear to converge
   **   ~~~   ** Air System Named = CENTRAL SYSTEM did not converge for mass flow rate
   **   ~~~   ** Check values should be zero. Most Recent values listed first.
   **   ~~~   ** Demand-to-Supply interface mass flow rate check value iteration history trace: 7.344182E-002,7.344182E-002,7.344182E-002,7.344182E-002,7.344182E-002,7.344182E-002,7.344182E-002,7.344182E-002,7.344182E-002,7.344182E-002,
   **   ~~~   ** Supply-to-demand interface deck 1 mass flow rate check value iteration history trace: 7.344182E-002,7.344182E-002,7.344182E-002,7.344182E-002,7.344182E-002,7.344182E-002,7.344182E-002,7.344182E-002,7.344182E-002,7.344182E-002,
   **   ~~~   ** Air System Named = CENTRAL SYSTEM did not converge for energy
   **   ~~~   ** Check values should be zero. Most Recent values listed first.
   **   ~~~   ** Demand-to-Supply interface energy check value iteration history trace: 1456.044844,1456.044844,1456.044844,1456.044844,1456.044844,1456.044844,1456.044844,1456.044844,1456.044844,1456.044843,
   **   ~~~   ** Supply-to-demand interface deck 1 energy check value iteration history trace: 2433.043272,2433.043272,2433.043272,2433.043271,2433.043271,2433.043271,2433.043271,2433.043271,2433.043271,2433.043271,
   ** Warning ** SimHVAC: Maximum iterations (20) exceeded for all HVAC loops, at ANNUAL, 11/19 08:39 - 08:42
   **   ~~~   ** The solution for one or more of the Air Loop HVAC systems did not appear to converge
   **   ~~~   ** Air System Named = CENTRAL SYSTEM did not converge for mass flow rate
   **   ~~~   ** Check values should be zero. Most Recent values listed first.
   **   ~~~   ** Demand-to-Supply interface mass flow rate check value iteration history trace: 0.220269,0.220269,0.220269,0.220269,0.220269,0.220269,0.220269,0.220269,0.220269,0.220269,
   **   ~~~   ** Supply-to-demand interface deck 1 mass flow rate check value iteration history trace: 0.220269,0.220269,0.220269,0.220269,0.220269,0.220269,0.220269,0.220269,0.220269,0.220269,
   **   ~~~   ** Air System Named = CENTRAL SYSTEM did not converge for energy
   **   ~~~   ** Check values should be zero. Most Recent values listed first.
   **   ~~~   ** Demand-to-Supply interface energy check value iteration history trace: 5248.834444,5248.834445,5248.834446,5248.834447,5248.834448,5248.834449,5248.834449,5248.834450,5248.834451,5248.834452,
   **   ~~~   ** Supply-to-demand interface deck 1 energy check value iteration history trace: 2725.680681,2725.680681,2725.680682,2725.680682,2725.680683,2725.680683,2725.680684,2725.680684,2725.680685,2725.680685,
   ** Warning ** SimHVAC: Maximum iterations (20) exceeded for all HVAC loops, at ANNUAL, 11/24 11:19 - 11:21
   **   ~~~   ** The solution for one or more of the Air Loop HVAC systems did not appear to converge
   **   ~~~   ** Air System Named = CENTRAL SYSTEM did not converge for mass flow rate
   **   ~~~   ** Check values should be zero. Most Recent values listed first.
   **   ~~~   ** Demand-to-Supply interface mass flow rate check value iteration history trace: 0.413684,0.413684,0.413684,0.413684,0.413684,0.413684,0.413684,0.413684,0.413684,0.413684,
   **   ~~~   ** Supply-to-demand interface deck 1 mass flow rate check value iteration history trace: 0.413684,0.413684,0.413684,0.413684,0.413684,0.413684,0.413684,0.413684,0.413684,0.413684,
   **   ~~~   ** Air System Named = CENTRAL SYSTEM did not converge for energy
   **   ~~~   ** Check values should be zero. Most Recent values listed first.
   **   ~~~   ** Demand-to-Supply interface energy check value iteration history trace: 9851.267313,9851.267314,9851.267315,9851.267316,9851.267318,9851.267319,9851.267320,9851.267321,9851.267322,9851.267324,
   **   ~~~   ** Supply-to-demand interface deck 1 energy check value iteration history trace: 4683.213921,4683.213922,4683.213923,4683.213923,4683.213924,4683.213924,4683.213925,4683.213925,4683.213926,4683.213927,
   ************* Simulation Error Summary *************
   ** Warning ** The following Report Variables were requested but not generated -- check.rdd file
   **   ~~~   ** Either the IDF did not contain these elements, the variable name is misspelled,
   **   ~~~   ** or the requested variable is an advanced output which requires Output : Diagnostics, DisplayAdvancedReportVariables;
   ************* Key=*, VarName=BASEBOARD TOTAL HEATING ENERGY, Frequency=
   ************* Key=*, VarName=WATER HEATER NATURALGAS ENERGY, Frequency=
   ************* Key=*, VarName=COOLING COIL TOTAL HEATING ENERGY, Frequency=
   ************* There are 34 unused schedules in input.
   ************* There are 388 unused week schedules in input.
   ************* There are 396 unused day schedules in input.
   ************* Use Output:Diagnostics,DisplayUnusedSchedules; to see them.
   *************
   ************* ===== Recurring Error Summary =====
   ************* The following recurring error messages occurred.
   *************
   *************  ** Warning ** "TOTAL HOT WATER LOAD" - Target water temperature should be less than or equal to the hot water temperature error continues...
   *************  **   ~~~   **   This error occurred 173913 total times;
   *************  **   ~~~   **   during Warmup 0 times;
   *************  **   ~~~   **   during Sizing 0 times.
   *************  **   ~~~   **   Max=8.738682  Min=1.618883E-004
   *************
   *************  ** Warning ** SimHVAC: Exceeding Maximum iterations for all HVAC loops, during ANNUAL continues
   *************  **   ~~~   **   This error occurred 3 total times;
   *************  **   ~~~   **   during Warmup 0 times;
   *************  **   ~~~   **   during Sizing 0 times.
   *************
   *************
   ************* ===== Final Error Summary =====
   ************* The following error categories occurred.  Consider correcting or noting.
   ************* Nominally Unused Constructions
   ************* ..The nominally unused constructions warning is provided to alert you to potential conditions that can cause
   ************* ..extra time during simulation. Each construction is calculated by the algorithm indicated in the HeatBalanceAlgorithm
   ************* ..object. You may remove the constructions indicated (when you use the DisplayExtraWarnings option).
   *************
   ************* EnergyPlus Warmup Error Summary. During Warmup: 1 Warning; 0 Severe Errors.
   ************* EnergyPlus Sizing Error Summary. During Sizing: 4 Warning; 0 Severe Errors.
   ************* EnergyPlus Completed Successfully-- 173948 Warning; 0 Severe Errors; Elapsed Time=00hr 07min  8.18sec
