Program Version,EnergyPlus, Version 22.2.0-c249759bad, YMD=2023.08.02 11:13,
   ************* Beginning Zone Sizing Calculations
   ** Warning ** ProcessScheduleInput: Schedule:Constant="ALWAYS ON DISCRETE", Schedule Type Limits Name="ONOFF" not found -- will not be validated
   ** Warning ** Foundation:Kiva="KIVA FOUNDATION", no Interior Horizontal Insulation Material Name defined
   **   ~~~   ** Interior Horizontal Insulation Depth will not be used.
   ** Warning ** CheckUsedConstructions: There are 15 nominally unused constructions in input.
   **   ~~~   ** Each Unused construction is shown.
   ************* Construction=INTERIOR FLOOR
   ************* Construction=INTERIOR WINDOW
   ************* Construction=EXTERIOR DOOR
   ************* Construction=INTERIOR DOOR
   ************* Construction=GABLE CONSTRUCTION
   ************* Construction=CRAWL_FLOOR
   ************* Construction=INSULATED PIPE
   ************* Construction=PLAIN PIPE
   ************* Construction=TDD PIPE
   ************* Construction=TDD DOME
   ************* Construction=TDD DIFFUSER
   ************* Construction=CRAWL WALL
   ************* Construction=CEILING-FLOOR-LAYER
   ************* Construction=SLAB CONSTRUCTION W FULL R10 INSULATION
   ************* Construction=SLAB CONSTRUCTION W FULL R5 INSULATION
   ************* Beginning System Sizing Calculations
   ************* Beginning Plant Sizing Calculations
   ** Warning ** SizeDXCoil Coil:Cooling:DX:SingleSpeed DX_COOLING_COIL
   **   ~~~   ** ...Gross Rated Total Cooling Capacity [W] will be limited by the maximum rated volume flow per rated total capacity ratio.
   **   ~~~   ** ...DX coil volume flow rate ( m3/s ) = 0.417173
   **   ~~~   ** ...Requested capacity ( W ) = 6311.501
   **   ~~~   ** ...Requested flow/capacity ratio ( m3/s/W ) = 6.609E-005
   **   ~~~   ** ...Maximum flow/capacity ratio ( m3/s/W ) = 6.041E-005
   **   ~~~   ** ...Adjusted capacity ( W ) = 6905.704
   ** Warning ** The Standard Ratings is calculated for Coil:Cooling:DX:SingleSpeed = DX_COOLING_COIL but not at the AHRI test condition due to curve out of bound.
   **   ~~~   **  Review the Standard Ratings calculations in the Engineering Reference for this coil type. Also, use Output:Diagnostics, DisplayExtraWarnings for further guidance.
   **   ~~~   ** CheckCurveLimitsForStandardRatings: The max and/or min limits specified in the corresponding curve objects
   **   ~~~   **  do not include the AHRI test conditions required to calculate one or more of the Standard Rating values.
   **   ~~~   ** Coil:Cooling:DX:SingleSpeed=DX_COOLING_COIL:  Integrated Energy Efficiency Ratio (IEER) calculated is not at the AHRI test condition.
   **   ~~~   **  Check limits in Total Cooling Capacity Function of Temperature Curve, Curve Type = Curve:Biquadratic, Curve Name = COOL-CAP-FT
   **   ~~~   **  Check limits in EIR Function of Temperature Curve, Curve Type = Curve:Biquadratic, Curve Name = COOL-EIR-FT
   ** Warning ** Coil:WaterHeating:AirToWaterHeatPump:Wrapped "HEAT PUMP WATER HEATER EVAPORATOR": Rated air volume flow rate per watt of rated total water heating capacity is out of range
   **   ~~~   ** Min Rated Vol Flow Per Watt=[4.027E-005], Rated Vol Flow Per Watt=[1.386E-004], Max Rated Vol Flow Per Watt=[8.056E-005]. See Input-Output Reference Manual for valid range.
   ** Warning ** Water heater = WATER HEATER TANK:  Recovery Efficiency and Energy Factor could not be calculated during the test for standard ratings
   **   ~~~   ** Setpoint was never recovered and/or heater never turned on
   ** Warning ** Check input. Pump nominal power or motor efficiency is set to 0, for pump=MAINS PRESSURE
   ** Warning ** Output:Meter: invalid Key Name="ELECTRIC_RANGE:INTERIOREQUIPMENT:ELECTRICITY" - not found.
   ** Warning ** Output:Meter: invalid Key Name="ELECTRIC_DRYER:INTERIOREQUIPMENT:ELECTRICITY" - not found.
   ** Warning ** Output:Meter: invalid Key Name="HEATRECOVERY:ELECTRICITY" - not found.
   ** Warning ** Output:Meter: invalid Key Name="WATERSYSTEMS:NATURALGAS" - not found.
   ** Warning ** Output:Meter: invalid Key Name="PROPANE:FACILITY" - not found.
   ** Warning ** Output:Meter: invalid Key Name="HEATING:PROPANE" - not found.
   ************* Testing Individual Branch Integrity
   ************* All Branches passed integrity testing
   ************* Testing Individual Supply Air Path Integrity
   ************* All Supply Air Paths passed integrity testing
   ************* Testing Individual Return Air Path Integrity
   ************* All Return Air Paths passed integrity testing
   ************* No node connection errors were found.
   ************* Beginning Simulation
   ** Warning ** AirflowNetwork::Solver::validate_distribution: Heat pump water heater is simulated along with an AirflowNetwork but is not included in the AirflowNetwork.
   ** Warning ** CalcEquipmentFlowRates: "TOTAL HOT WATER LOAD" - Target water temperature is greater than the hot water temperature by (2.63 C)
   **   ~~~   **  Environment=EXTREME_WINTER, at Simulation time=01/15 06:00 - 06:10
   **   ~~~   ** ...target water temperature     = 53.33 C
   **   ~~~   ** ...hot water temperature        = 50.70 C
   **   ~~~   ** ...Target water temperature should be less than or equal to the hot water temperature. Verify temperature setpoints and schedules.
   ** Warning ** SimHVAC: Maximum iterations (20) exceeded for all HVAC loops, at ANNUAL, 03/09 09:00 - 09:10
   **   ~~~   ** The solution for one or more of the Air Loop HVAC systems did not appear to converge
   **   ~~~   ** Air System Named = CENTRAL SYSTEM did not converge for mass flow rate
   **   ~~~   ** Check values should be zero. Most Recent values listed first.
   **   ~~~   ** Demand-to-Supply interface mass flow rate check value iteration history trace: 8.690469E-002,8.690469E-002,8.690469E-002,8.690469E-002,8.690469E-002,8.690469E-002,8.690469E-002,8.690469E-002,8.690469E-002,8.690469E-002,
   **   ~~~   ** Supply-to-demand interface deck 1 mass flow rate check value iteration history trace: 8.690469E-002,8.690469E-002,8.690469E-002,8.690469E-002,8.690469E-002,8.690469E-002,8.690469E-002,8.690469E-002,8.690469E-002,8.690469E-002,
   **   ~~~   ** Air System Named = CENTRAL SYSTEM did not converge for energy
   **   ~~~   ** Check values should be zero. Most Recent values listed first.
   **   ~~~   ** Demand-to-Supply interface energy check value iteration history trace: 1722.189611,1722.189610,1722.189609,1722.189609,1722.189608,1722.189607,1722.189606,1722.189605,1722.189604,1722.189603,
   **   ~~~   ** Supply-to-demand interface deck 1 energy check value iteration history trace: 2766.130635,2766.130634,2766.130632,2766.130631,2766.130629,2766.130628,2766.130626,2766.130625,2766.130624,2766.130622,
   ** Warning ** Temperature out of range [-100. to 200.] (PsyPsatFnTemp)
   **   ~~~   **  Routine=PsyTwbFnTdbWPb, Environment=ANNUAL, at Simulation time=03/10 13:50 - 14:00
   **   ~~~   **  Input Temperature=-377.16
   ** Warning ** SimHVAC: Maximum iterations (20) exceeded for all HVAC loops, at ANNUAL, 03/24 08:20 - 08:25
   **   ~~~   ** The solution for one or more of the Air Loop HVAC systems did not appear to converge
   **   ~~~   ** Air System Named = CENTRAL SYSTEM did not converge for mass flow rate
   **   ~~~   ** Check values should be zero. Most Recent values listed first.
   **   ~~~   ** Demand-to-Supply interface mass flow rate check value iteration history trace: 0.100997,0.100997,0.100997,0.100997,0.100997,0.100997,0.100997,0.100997,0.100997,0.100997,
   **   ~~~   ** Supply-to-demand interface deck 1 mass flow rate check value iteration history trace: 0.100997,0.100997,0.100997,0.100997,0.100997,0.100997,0.100997,0.100997,0.100997,0.100997,
   **   ~~~   ** Air System Named = CENTRAL SYSTEM did not converge for energy
   **   ~~~   ** Check values should be zero. Most Recent values listed first.
   **   ~~~   ** Demand-to-Supply interface energy check value iteration history trace: 2001.382652,2001.382650,2001.382648,2001.382646,2001.382644,2001.382642,2001.382641,2001.382639,2001.382637,2001.382635,
   **   ~~~   ** Supply-to-demand interface deck 1 energy check value iteration history trace: 3212.285745,3212.285742,3212.285739,3212.285736,3212.285733,3212.285730,3212.285728,3212.285725,3212.285722,3212.285719,
   ** Warning ** SimHVAC: Maximum iterations (20) exceeded for all HVAC loops, at ANNUAL, 03/30 08:30 - 08:33
   **   ~~~   ** The solution for one or more of the Air Loop HVAC systems did not appear to converge
   **   ~~~   ** Air System Named = CENTRAL SYSTEM did not converge for mass flow rate
   **   ~~~   ** Check values should be zero. Most Recent values listed first.
   **   ~~~   ** Demand-to-Supply interface mass flow rate check value iteration history trace: 8.058201E-002,8.058201E-002,8.058201E-002,8.058201E-002,8.058201E-002,8.058201E-002,8.058201E-002,8.058201E-002,8.058201E-002,8.058201E-002,
   **   ~~~   ** Supply-to-demand interface deck 1 mass flow rate check value iteration history trace: 8.058201E-002,8.058201E-002,8.058201E-002,8.058201E-002,8.058201E-002,8.058201E-002,8.058201E-002,8.058201E-002,8.058201E-002,8.058201E-002,
   **   ~~~   ** Air System Named = CENTRAL SYSTEM did not converge for energy
   **   ~~~   ** Check values should be zero. Most Recent values listed first.
   **   ~~~   ** Demand-to-Supply interface energy check value iteration history trace: 1592.091872,1592.091872,1592.091871,1592.091870,1592.091869,1592.091869,1592.091868,1592.091867,1592.091867,1592.091866,
   **   ~~~   ** Supply-to-demand interface deck 1 energy check value iteration history trace: 2555.733354,2555.733353,2555.733352,2555.733351,2555.733349,2555.733348,2555.733347,2555.733346,2555.733345,2555.733344,
   ** Warning ** SimHVAC: Maximum iterations (20) exceeded for all HVAC loops, at ANNUAL, 04/08 08:20 - 08:30
   **   ~~~   ** The solution for one or more of the Air Loop HVAC systems did not appear to converge
   **   ~~~   ** Air System Named = CENTRAL SYSTEM did not converge for mass flow rate
   **   ~~~   ** Check values should be zero. Most Recent values listed first.
   **   ~~~   ** Demand-to-Supply interface mass flow rate check value iteration history trace: 9.781380E-002,9.781380E-002,9.781380E-002,9.781380E-002,9.781380E-002,9.781380E-002,9.781380E-002,9.781380E-002,9.781380E-002,9.781380E-002,
   **   ~~~   ** Supply-to-demand interface deck 1 mass flow rate check value iteration history trace: 9.781380E-002,9.781380E-002,9.781380E-002,9.781380E-002,9.781380E-002,9.781380E-002,9.781380E-002,9.781380E-002,9.781380E-002,9.781380E-002,
   **   ~~~   ** Air System Named = CENTRAL SYSTEM did not converge for energy
   **   ~~~   ** Check values should be zero. Most Recent values listed first.
   **   ~~~   ** Demand-to-Supply interface energy check value iteration history trace: 1938.348911,1938.348909,1938.348908,1938.348906,1938.348904,1938.348902,1938.348901,1938.348899,1938.348897,1938.348896,
   **   ~~~   ** Supply-to-demand interface deck 1 energy check value iteration history trace: 3110.035642,3110.035639,3110.035637,3110.035634,3110.035631,3110.035628,3110.035626,3110.035623,3110.035620,3110.035618,
   ** Warning ** SimHVAC: Maximum iterations (20) exceeded for all HVAC loops, at ANNUAL, 04/12 07:10 - 07:20
   **   ~~~   ** The solution for one or more of the Air Loop HVAC systems did not appear to converge
   **   ~~~   ** Air System Named = CENTRAL SYSTEM did not converge for mass flow rate
   **   ~~~   ** Check values should be zero. Most Recent values listed first.
   **   ~~~   ** Demand-to-Supply interface mass flow rate check value iteration history trace: 9.841122E-002,9.841122E-002,9.841122E-002,9.841122E-002,9.841122E-002,9.841122E-002,9.841122E-002,9.841122E-002,9.841122E-002,9.841122E-002,
   **   ~~~   ** Supply-to-demand interface deck 1 mass flow rate check value iteration history trace: 9.841122E-002,9.841122E-002,9.841122E-002,9.841122E-002,9.841122E-002,9.841122E-002,9.841122E-002,9.841122E-002,9.841122E-002,9.841122E-002,
   **   ~~~   ** Air System Named = CENTRAL SYSTEM did not converge for energy
   **   ~~~   ** Check values should be zero. Most Recent values listed first.
   **   ~~~   ** Demand-to-Supply interface energy check value iteration history trace: 1950.095939,1950.095937,1950.095936,1950.095934,1950.095933,1950.095931,1950.095930,1950.095928,1950.095927,1950.095925,
   **   ~~~   ** Supply-to-demand interface deck 1 energy check value iteration history trace: 3128.533769,3128.533766,3128.533764,3128.533761,3128.533759,3128.533757,3128.533754,3128.533752,3128.533749,3128.533747,
   ** Warning ** SimHVAC: Maximum iterations (20) exceeded for all HVAC loops, at ANNUAL, 04/16 10:20 - 10:30
   **   ~~~   ** The solution for one or more of the Air Loop HVAC systems did not appear to converge
   **   ~~~   ** Air System Named = CENTRAL SYSTEM did not converge for mass flow rate
   **   ~~~   ** Check values should be zero. Most Recent values listed first.
   **   ~~~   ** Demand-to-Supply interface mass flow rate check value iteration history trace: 0.100270,0.100270,0.100270,0.100270,0.100270,0.100270,0.100270,0.100270,0.100270,0.100270,
   **   ~~~   ** Supply-to-demand interface deck 1 mass flow rate check value iteration history trace: 0.100270,0.100270,0.100270,0.100270,0.100270,0.100270,0.100270,0.100270,0.100270,0.100270,
   **   ~~~   ** Air System Named = CENTRAL SYSTEM did not converge for energy
   **   ~~~   ** Check values should be zero. Most Recent values listed first.
   **   ~~~   ** Demand-to-Supply interface energy check value iteration history trace: 1987.124173,1987.124170,1987.124168,1987.124165,1987.124163,1987.124160,1987.124158,1987.124155,1987.124153,1987.124150,
   **   ~~~   ** Supply-to-demand interface deck 1 energy check value iteration history trace: 3196.366348,3196.366344,3196.366340,3196.366336,3196.366332,3196.366327,3196.366323,3196.366319,3196.366315,3196.366311,
   ** Warning ** SimHVAC: Maximum iterations (20) exceeded for all HVAC loops, at ANNUAL, 04/19 08:33 - 08:37
   **   ~~~   ** The solution for one or more of the Air Loop HVAC systems did not appear to converge
   **   ~~~   ** Air System Named = CENTRAL SYSTEM did not converge for mass flow rate
   **   ~~~   ** Check values should be zero. Most Recent values listed first.
   **   ~~~   ** Demand-to-Supply interface mass flow rate check value iteration history trace: 9.001942E-002,9.001942E-002,9.001942E-002,9.001941E-002,9.001941E-002,9.001941E-002,9.001941E-002,9.001941E-002,9.001941E-002,9.001941E-002,
   **   ~~~   ** Supply-to-demand interface deck 1 mass flow rate check value iteration history trace: 9.001942E-002,9.001942E-002,9.001942E-002,9.001941E-002,9.001941E-002,9.001941E-002,9.001941E-002,9.001941E-002,9.001941E-002,9.001941E-002,
   **   ~~~   ** Air System Named = CENTRAL SYSTEM did not converge for energy
   **   ~~~   ** Check values should be zero. Most Recent values listed first.
   **   ~~~   ** Demand-to-Supply interface energy check value iteration history trace: 1771.007951,1771.007949,1771.007947,1771.007946,1771.007944,1771.007942,1771.007940,1771.007938,1771.007937,1771.007935,
   **   ~~~   ** Supply-to-demand interface deck 1 energy check value iteration history trace: 2849.813267,2849.813264,2849.813261,2849.813258,2849.813256,2849.813253,2849.813250,2849.813247,2849.813244,2849.813241,
   ** Warning ** SimHVAC: Maximum iterations (20) exceeded for all HVAC loops, at ANNUAL, 05/02 06:50 - 06:55
   **   ~~~   ** The solution for one or more of the Air Loop HVAC systems did not appear to converge
   **   ~~~   ** Air System Named = CENTRAL SYSTEM did not converge for mass flow rate
   **   ~~~   ** Check values should be zero. Most Recent values listed first.
   **   ~~~   ** Demand-to-Supply interface mass flow rate check value iteration history trace: 9.759636E-002,9.759636E-002,9.759636E-002,9.759636E-002,9.759636E-002,9.759636E-002,9.759636E-002,9.759636E-002,9.759636E-002,9.759636E-002,
   **   ~~~   ** Supply-to-demand interface deck 1 mass flow rate check value iteration history trace: 9.759636E-002,9.759636E-002,9.759636E-002,9.759636E-002,9.759636E-002,9.759636E-002,9.759636E-002,9.759636E-002,9.759636E-002,9.759636E-002,
   **   ~~~   ** Air System Named = CENTRAL SYSTEM did not converge for energy
   **   ~~~   ** Check values should be zero. Most Recent values listed first.
   **   ~~~   ** Demand-to-Supply interface energy check value iteration history trace: 1933.929187,1933.929185,1933.929182,1933.929180,1933.929177,1933.929175,1933.929172,1933.929170,1933.929167,1933.929165,
   **   ~~~   ** Supply-to-demand interface deck 1 energy check value iteration history trace: 3104.026541,3104.026537,3104.026533,3104.026529,3104.026525,3104.026521,3104.026517,3104.026513,3104.026509,3104.026505,
   ** Warning ** SimHVAC: Maximum iterations (20) exceeded for all HVAC loops, at ANNUAL, 05/17 09:00 - 09:10
   **   ~~~   ** The solution for one or more of the Air Loop HVAC systems did not appear to converge
   **   ~~~   ** Air System Named = CENTRAL SYSTEM did not converge for mass flow rate
   **   ~~~   ** Check values should be zero. Most Recent values listed first.
   **   ~~~   ** Demand-to-Supply interface mass flow rate check value iteration history trace: 8.469504E-002,8.469504E-002,8.469504E-002,8.469504E-002,8.469504E-002,8.469504E-002,8.469504E-002,8.469504E-002,8.469504E-002,8.469504E-002,
   **   ~~~   ** Supply-to-demand interface deck 1 mass flow rate check value iteration history trace: 8.469504E-002,8.469504E-002,8.469504E-002,8.469504E-002,8.469504E-002,8.469504E-002,8.469504E-002,8.469504E-002,8.469504E-002,8.469504E-002,
   **   ~~~   ** Air System Named = CENTRAL SYSTEM did not converge for energy
   **   ~~~   ** Check values should be zero. Most Recent values listed first.
   **   ~~~   ** Demand-to-Supply interface energy check value iteration history trace: 1669.146990,1669.146988,1669.146986,1669.146984,1669.146983,1669.146981,1669.146979,1669.146977,1669.146975,1669.146974,
   **   ~~~   ** Supply-to-demand interface deck 1 energy check value iteration history trace: 2684.323557,2684.323554,2684.323551,2684.323549,2684.323546,2684.323543,2684.323540,2684.323537,2684.323534,2684.323531,
   ** Warning ** SimHVAC: Maximum iterations (20) exceeded for all HVAC loops, at ANNUAL, 10/04 07:30 - 07:40
   **   ~~~   ** The solution for one or more of the Air Loop HVAC systems did not appear to converge
   **   ~~~   ** Air System Named = CENTRAL SYSTEM did not converge for mass flow rate
   **   ~~~   ** Check values should be zero. Most Recent values listed first.
   **   ~~~   ** Demand-to-Supply interface mass flow rate check value iteration history trace: 8.048975E-002,8.048975E-002,8.048975E-002,8.048975E-002,8.048975E-002,8.048975E-002,8.048975E-002,8.048975E-002,8.048975E-002,8.048975E-002,
   **   ~~~   ** Supply-to-demand interface deck 1 mass flow rate check value iteration history trace: 8.048975E-002,8.048975E-002,8.048975E-002,8.048975E-002,8.048975E-002,8.048975E-002,8.048975E-002,8.048975E-002,8.048975E-002,8.048975E-002,
   **   ~~~   ** Air System Named = CENTRAL SYSTEM did not converge for energy
   **   ~~~   ** Check values should be zero. Most Recent values listed first.
   **   ~~~   ** Demand-to-Supply interface energy check value iteration history trace: 1582.599625,1582.599623,1582.599622,1582.599620,1582.599618,1582.599617,1582.599615,1582.599613,1582.599612,1582.599610,
   **   ~~~   ** Supply-to-demand interface deck 1 energy check value iteration history trace: 2543.354795,2543.354792,2543.354789,2543.354787,2543.354784,2543.354781,2543.354779,2543.354776,2543.354773,2543.354770,
   ** Warning ** SimHVAC: Maximum iterations (20) exceeded for all HVAC loops, at ANNUAL, 10/08 09:43 - 09:45
   **   ~~~   ** The solution for one or more of the Air Loop HVAC systems did not appear to converge
   **   ~~~   ** Air System Named = CENTRAL SYSTEM did not converge for mass flow rate
   **   ~~~   ** Check values should be zero. Most Recent values listed first.
   **   ~~~   ** Demand-to-Supply interface mass flow rate check value iteration history trace: 0.156294,0.156294,0.156294,0.156294,0.156294,0.156294,0.156294,0.156294,0.156294,0.156294,
   **   ~~~   ** Supply-to-demand interface deck 1 mass flow rate check value iteration history trace: 0.156294,0.156294,0.156294,0.156294,0.156294,0.156294,0.156294,0.156294,0.156294,0.156294,
   **   ~~~   ** Air System Named = CENTRAL SYSTEM did not converge for energy
   **   ~~~   ** Check values should be zero. Most Recent values listed first.
   **   ~~~   ** Demand-to-Supply interface energy check value iteration history trace: 3680.460566,3680.460570,3680.460574,3680.460577,3680.460581,3680.460585,3680.460588,3680.460592,3680.460596,3680.460599,
   **   ~~~   ** Supply-to-demand interface deck 1 energy check value iteration history trace: 2176.098768,2176.098771,2176.098773,2176.098775,2176.098777,2176.098779,2176.098781,2176.098784,2176.098786,2176.098788,
   ** Warning ** SimHVAC: Maximum iterations (20) exceeded for all HVAC loops, at ANNUAL, 11/16 06:00 - 06:10
   **   ~~~   ** The solution for one or more of the Air Loop HVAC systems did not appear to converge
   **   ~~~   ** Air System Named = CENTRAL SYSTEM did not converge for mass flow rate
   **   ~~~   ** Check values should be zero. Most Recent values listed first.
   **   ~~~   ** Demand-to-Supply interface mass flow rate check value iteration history trace: 8.886949E-002,8.886949E-002,8.886949E-002,8.886949E-002,8.886949E-002,8.886949E-002,8.886948E-002,8.886948E-002,8.886948E-002,8.886948E-002,
   **   ~~~   ** Supply-to-demand interface deck 1 mass flow rate check value iteration history trace: 8.886949E-002,8.886949E-002,8.886949E-002,8.886949E-002,8.886949E-002,8.886949E-002,8.886948E-002,8.886948E-002,8.886948E-002,8.886948E-002,
   **   ~~~   ** Air System Named = CENTRAL SYSTEM did not converge for energy
   **   ~~~   ** Check values should be zero. Most Recent values listed first.
   **   ~~~   ** Demand-to-Supply interface energy check value iteration history trace: 1761.154768,1761.154766,1761.154764,1761.154762,1761.154761,1761.154759,1761.154757,1761.154755,1761.154753,1761.154752,
   **   ~~~   ** Supply-to-demand interface deck 1 energy check value iteration history trace: 2822.882117,2822.882114,2822.882111,2822.882108,2822.882106,2822.882103,2822.882100,2822.882097,2822.882094,2822.882091,
   ** Warning ** SimHVAC: Maximum iterations (20) exceeded for all HVAC loops, at ANNUAL, 12/23 15:20 - 15:30
   **   ~~~   ** The solution for one or more of the Air Loop HVAC systems did not appear to converge
   **   ~~~   ** Air System Named = CENTRAL SYSTEM did not converge for mass flow rate
   **   ~~~   ** Check values should be zero. Most Recent values listed first.
   **   ~~~   ** Demand-to-Supply interface mass flow rate check value iteration history trace: 0.100347,0.100347,0.100347,0.100347,0.100347,0.100347,0.100347,0.100347,0.100347,0.100347,
   **   ~~~   ** Supply-to-demand interface deck 1 mass flow rate check value iteration history trace: 0.100347,0.100347,0.100347,0.100347,0.100347,0.100347,0.100347,0.100347,0.100347,0.100347,
   **   ~~~   ** Air System Named = CENTRAL SYSTEM did not converge for energy
   **   ~~~   ** Check values should be zero. Most Recent values listed first.
   **   ~~~   ** Demand-to-Supply interface energy check value iteration history trace: 1967.234549,1967.234548,1967.234546,1967.234544,1967.234542,1967.234540,1967.234538,1967.234536,1967.234534,1967.234532,
   **   ~~~   ** Supply-to-demand interface deck 1 energy check value iteration history trace: 3174.334914,3174.334911,3174.334908,3174.334905,3174.334902,3174.334899,3174.334896,3174.334893,3174.334890,3174.334886,
   ** Warning ** SimHVAC: Maximum iterations (20) exceeded for all HVAC loops, at ANNUAL, 12/31 11:40 - 11:43
   **   ~~~   ** The solution for one or more of the Air Loop HVAC systems did not appear to converge
   **   ~~~   ** Air System Named = CENTRAL SYSTEM did not converge for mass flow rate
   **   ~~~   ** Check values should be zero. Most Recent values listed first.
   **   ~~~   ** Demand-to-Supply interface mass flow rate check value iteration history trace: 8.995902E-002,8.995902E-002,8.995902E-002,8.995902E-002,8.995902E-002,8.995902E-002,8.995902E-002,8.995902E-002,8.995902E-002,8.995902E-002,
   **   ~~~   ** Supply-to-demand interface deck 1 mass flow rate check value iteration history trace: 8.995902E-002,8.995902E-002,8.995902E-002,8.995902E-002,8.995902E-002,8.995902E-002,8.995902E-002,8.995902E-002,8.995902E-002,8.995902E-002,
   **   ~~~   ** Air System Named = CENTRAL SYSTEM did not converge for energy
   **   ~~~   ** Check values should be zero. Most Recent values listed first.
   **   ~~~   ** Demand-to-Supply interface energy check value iteration history trace: 1782.387041,1782.387038,1782.387035,1782.387033,1782.387030,1782.387027,1782.387025,1782.387022,1782.387019,1782.387017,
   **   ~~~   ** Supply-to-demand interface deck 1 energy check value iteration history trace: 2867.359029,2867.359025,2867.359020,2867.359016,2867.359012,2867.359008,2867.359003,2867.358999,2867.358995,2867.358991,
   ************* Simulation Error Summary *************
   ** Warning ** The following Report Variables were requested but not generated -- check.rdd file
   **   ~~~   ** Either the IDF did not contain these elements, the variable name is misspelled,
   **   ~~~   ** or the requested variable is an advanced output which requires Output : Diagnostics, DisplayAdvancedReportVariables;
   ************* Key=*, VarName=HEATING COIL DEFROST ELECTRICITY ENERGY, Frequency=
   ************* Key=*, VarName=HEATING COIL CRANKCASE HEATER ELECTRICITY ENERGY, Frequency=
   ************* Key=*, VarName=BASEBOARD TOTAL HEATING ENERGY, Frequency=
   ************* There are 34 unused schedules in input.
   ************* There are 388 unused week schedules in input.
   ************* There are 396 unused day schedules in input.
   ************* Use Output:Diagnostics,DisplayUnusedSchedules; to see them.
   *************
   ************* ===== Recurring Error Summary =====
   ************* The following recurring error messages occurred.
   *************
   *************  ** Warning ** "TOTAL HOT WATER LOAD" - Target water temperature should be less than or equal to the hot water temperature error continues...
   *************  **   ~~~   **   This error occurred 106881 total times;
   *************  **   ~~~   **   during Warmup 0 times;
   *************  **   ~~~   **   during Sizing 0 times.
   *************  **   ~~~   **   Max=19.592827  Min=1.329267E-003
   *************
   *************  ** Warning ** Temperature out of range [-100. to 200.] (PsyPsatFnTemp)
   *************  **   ~~~   **   This error occurred 1 total times;
   *************  **   ~~~   **   during Warmup 0 times;
   *************  **   ~~~   **   during Sizing 0 times.
   *************  **   ~~~   **   Max=-377.168625 C  Min=-377.168625 C
   *************
   *************
   ************* ===== Final Error Summary =====
   ************* The following error categories occurred.  Consider correcting or noting.
   ************* Nominally Unused Constructions
   ************* ..The nominally unused constructions warning is provided to alert you to potential conditions that can cause
   ************* ..extra time during simulation. Each construction is calculated by the algorithm indicated in the HeatBalanceAlgorithm
   ************* ..object. You may remove the constructions indicated (when you use the DisplayExtraWarnings option).
   *************
   ************* EnergyPlus Warmup Error Summary. During Warmup: 1 Warning; 0 Severe Errors.
   ************* EnergyPlus Sizing Error Summary. During Sizing: 3 Warning; 0 Severe Errors.
   ************* EnergyPlus Completed Successfully-- 106913 Warning; 0 Severe Errors; Elapsed Time=00hr 04min 33.28sec
