Program Version,EnergyPlus, Version 22.2.0-c249759bad, YMD=2023.09.01 18:57,
   ************* Beginning Zone Sizing Calculations
   ** Warning ** ProcessScheduleInput: Schedule:Constant="ALWAYS ON DISCRETE", Schedule Type Limits Name="ONOFF" not found -- will not be validated
   ** Warning ** Foundation:Kiva="KIVA FOUNDATION", no Interior Horizontal Insulation Material Name defined
   **   ~~~   ** Interior Horizontal Insulation Depth will not be used.
   ** Warning ** CheckUsedConstructions: There are 15 nominally unused constructions in input.
   **   ~~~   ** Each Unused construction is shown.
   ************* Construction=INTERIOR FLOOR
   ************* Construction=INTERIOR WINDOW
   ************* Construction=EXTERIOR DOOR
   ************* Construction=INTERIOR DOOR
   ************* Construction=GABLE CONSTRUCTION
   ************* Construction=CRAWL_FLOOR
   ************* Construction=INSULATED PIPE
   ************* Construction=PLAIN PIPE
   ************* Construction=TDD PIPE
   ************* Construction=TDD DOME
   ************* Construction=TDD DIFFUSER
   ************* Construction=CRAWL WALL
   ************* Construction=CEILING-FLOOR-LAYER
   ************* Construction=SLAB CONSTRUCTION W FULL R10 INSULATION
   ************* Construction=SLAB CONSTRUCTION W FULL R5 INSULATION
   ** Warning ** GetDXCoils: Coil:Heating:DX:SingleSpeed="DX_HEATING_COIL" curve values
   **   ~~~   ** ... Defrost Energy Input Ratio Function of Temperature Curve Name = DEFROSTEIR output is not equal to 1.0 (+ or - 10%) at rated conditions.
   **   ~~~   ** ... Curve output at rated conditions = 0.152
   ************* Beginning System Sizing Calculations
   ************* Beginning Plant Sizing Calculations
   ** Warning ** SizeDXCoil Coil:Cooling:DX:SingleSpeed DX_COOLING_COIL
   **   ~~~   ** ...Gross Rated Total Cooling Capacity [W] will be limited by the maximum rated volume flow per rated total capacity ratio.
   **   ~~~   ** ...DX coil volume flow rate ( m3/s ) = 0.405558
   **   ~~~   ** ...Requested capacity ( W ) = 6034.344
   **   ~~~   ** ...Requested flow/capacity ratio ( m3/s/W ) = 6.720E-005
   **   ~~~   ** ...Maximum flow/capacity ratio ( m3/s/W ) = 6.041E-005
   **   ~~~   ** ...Adjusted capacity ( W ) = 6713.435
   ** Warning ** Coil:WaterHeating:AirToWaterHeatPump:Wrapped "HEAT PUMP WATER HEATER EVAPORATOR": Rated air volume flow rate per watt of rated total water heating capacity is out of range
   **   ~~~   ** Min Rated Vol Flow Per Watt=[4.027E-005], Rated Vol Flow Per Watt=[1.510E-004], Max Rated Vol Flow Per Watt=[8.056E-005]. See Input-Output Reference Manual for valid range.
   ************* SizeFan: : Potential issue with equipment sizing for Fan:OnOff HEAT PUMP WATER HEATER FAN
   **   ~~~   ** User-Specified Maximum Flow Rate [m3/s] = 0.22653
   **   ~~~   ** differs from Design Size Maximum Flow Rate [m3/s] = 7.55250E-002
   **   ~~~   ** This may, or may not, indicate mismatched component sizes.
   **   ~~~   ** Verify that the value entered is intended and is consistent with other components.
   ** Warning ** Water heater = WATER HEATER TANK:  Recovery Efficiency and Energy Factor could not be calculated during the test for standard ratings
   **   ~~~   ** Setpoint was never recovered and/or heater never turned on
   ** Warning ** Check input. Pump nominal power or motor efficiency is set to 0, for pump=MAINS PRESSURE
   ** Warning ** AirflowNetwork::Solver::validate_distribution: Heat pump water heater is simulated along with an AirflowNetwork but is not included in the AirflowNetwork.
   ** Warning ** Output:Meter: invalid Key Name="ELECTRIC_RANGE:INTERIOREQUIPMENT:ELECTRICITY" - not found.
   ** Warning ** Output:Meter: invalid Key Name="ELECTRIC_DRYER:INTERIOREQUIPMENT:ELECTRICITY" - not found.
   ** Warning ** Output:Meter: invalid Key Name="HEATRECOVERY:ELECTRICITY" - not found.
   ** Warning ** Output:Meter: invalid Key Name="HEATING:NATURALGAS" - not found.
   ** Warning ** Output:Meter: invalid Key Name="WATERSYSTEMS:NATURALGAS" - not found.
   ** Warning ** Output:Meter: invalid Key Name="PROPANE:FACILITY" - not found.
   ** Warning ** Output:Meter: invalid Key Name="HEATING:PROPANE" - not found.
   ************* Testing Individual Branch Integrity
   ************* All Branches passed integrity testing
   ************* Testing Individual Supply Air Path Integrity
   ************* All Supply Air Paths passed integrity testing
   ************* Testing Individual Return Air Path Integrity
   ************* All Return Air Paths passed integrity testing
   ************* No node connection errors were found.
   ************* Beginning Simulation
   ** Warning ** CalcEquipmentFlowRates: "TOTAL HOT WATER LOAD" - Target water temperature is greater than the hot water temperature by (2.79 C)
   **   ~~~   **  Environment=EXTREME_WINTER, at Simulation time=02/05 03:45 - 04:00
   **   ~~~   ** ...target water temperature     = 53.33 C
   **   ~~~   ** ...hot water temperature        = 50.54 C
   **   ~~~   ** ...Target water temperature should be less than or equal to the hot water temperature. Verify temperature setpoints and schedules.
   ** Warning ** SimHVAC: Maximum iterations (20) exceeded for all HVAC loops, at ANNUAL, 03/26 20:30 - 20:35
   **   ~~~   ** The solution for one or more of the Air Loop HVAC systems did not appear to converge
   **   ~~~   ** Air System Named = CENTRAL SYSTEM did not converge for mass flow rate
   **   ~~~   ** Check values should be zero. Most Recent values listed first.
   **   ~~~   ** Demand-to-Supply interface mass flow rate check value iteration history trace: 9.123597E-002,9.123597E-002,9.123597E-002,9.123597E-002,9.123597E-002,9.123597E-002,9.123597E-002,9.123597E-002,9.123597E-002,9.123597E-002,
   **   ~~~   ** Supply-to-demand interface deck 1 mass flow rate check value iteration history trace: 9.123597E-002,9.123597E-002,9.123597E-002,9.123597E-002,9.123597E-002,9.123597E-002,9.123597E-002,9.123597E-002,9.123597E-002,9.123597E-002,
   **   ~~~   ** Air System Named = CENTRAL SYSTEM did not converge for energy
   **   ~~~   ** Check values should be zero. Most Recent values listed first.
   **   ~~~   ** Demand-to-Supply interface energy check value iteration history trace: 1808.907894,1808.907894,1808.907894,1808.907894,1808.907894,1808.907894,1808.907894,1808.907894,1808.907894,1808.907893,
   **   ~~~   ** Supply-to-demand interface deck 1 energy check value iteration history trace: 2702.047089,2702.047089,2702.047089,2702.047088,2702.047088,2702.047088,2702.047088,2702.047088,2702.047088,2702.047087,
   ** Warning ** SimHVAC: Maximum iterations (20) exceeded for all HVAC loops, at ANNUAL, 03/29 10:30 - 10:45
   **   ~~~   ** The solution for one or more of the Air Loop HVAC systems did not appear to converge
   **   ~~~   ** Air System Named = CENTRAL SYSTEM did not converge for mass flow rate
   **   ~~~   ** Check values should be zero. Most Recent values listed first.
   **   ~~~   ** Demand-to-Supply interface mass flow rate check value iteration history trace: 5.010909E-002,5.010909E-002,5.010909E-002,5.010909E-002,5.010909E-002,5.010909E-002,5.010909E-002,5.010909E-002,5.010909E-002,5.010909E-002,
   **   ~~~   ** Supply-to-demand interface deck 1 mass flow rate check value iteration history trace: 5.010909E-002,5.010909E-002,5.010909E-002,5.010909E-002,5.010909E-002,5.010909E-002,5.010909E-002,5.010909E-002,5.010909E-002,5.010909E-002,
   **   ~~~   ** Air System Named = CENTRAL SYSTEM did not converge for energy
   **   ~~~   ** Check values should be zero. Most Recent values listed first.
   **   ~~~   ** Demand-to-Supply interface energy check value iteration history trace: 992.612378,992.612378,992.612378,992.612377,992.612377,992.612377,992.612377,992.612377,992.612377,992.612377,
   **   ~~~   ** Supply-to-demand interface deck 1 energy check value iteration history trace: 1774.404671,1774.404671,1774.404671,1774.404671,1774.404671,1774.404671,1774.404671,1774.404671,1774.404671,1774.404670,
   ** Warning ** SimHVAC: Maximum iterations (20) exceeded for all HVAC loops, at ANNUAL, 04/03 08:45 - 09:00
   **   ~~~   ** The solution for one or more of the Air Loop HVAC systems did not appear to converge
   **   ~~~   ** Air System Named = CENTRAL SYSTEM did not converge for mass flow rate
   **   ~~~   ** Check values should be zero. Most Recent values listed first.
   **   ~~~   ** Demand-to-Supply interface mass flow rate check value iteration history trace: 5.863751E-002,5.863751E-002,5.863751E-002,5.863751E-002,5.863751E-002,5.863751E-002,5.863751E-002,5.863751E-002,5.863751E-002,5.863751E-002,
   **   ~~~   ** Supply-to-demand interface deck 1 mass flow rate check value iteration history trace: 5.863751E-002,5.863751E-002,5.863751E-002,5.863751E-002,5.863751E-002,5.863751E-002,5.863751E-002,5.863751E-002,5.863751E-002,5.863751E-002,
   **   ~~~   ** Air System Named = CENTRAL SYSTEM did not converge for energy
   **   ~~~   ** Check values should be zero. Most Recent values listed first.
   **   ~~~   ** Demand-to-Supply interface energy check value iteration history trace: 1159.673048,1159.673048,1159.673048,1159.673048,1159.673047,1159.673047,1159.673047,1159.673047,1159.673047,1159.673047,
   **   ~~~   ** Supply-to-demand interface deck 1 energy check value iteration history trace: 2077.370255,2077.370255,2077.370255,2077.370255,2077.370255,2077.370254,2077.370254,2077.370254,2077.370254,2077.370254,
   ** Warning ** SimHVAC: Maximum iterations (20) exceeded for all HVAC loops, at ANNUAL, 04/10 19:00 - 19:15
   **   ~~~   ** The solution for one or more of the Air Loop HVAC systems did not appear to converge
   **   ~~~   ** Air System Named = CENTRAL SYSTEM did not converge for mass flow rate
   **   ~~~   ** Check values should be zero. Most Recent values listed first.
   **   ~~~   ** Demand-to-Supply interface mass flow rate check value iteration history trace: 7.958926E-002,7.958926E-002,7.958926E-002,7.958926E-002,7.958926E-002,7.958926E-002,7.958926E-002,7.958926E-002,7.958926E-002,7.958926E-002,
   **   ~~~   ** Supply-to-demand interface deck 1 mass flow rate check value iteration history trace: 7.958926E-002,7.958926E-002,7.958926E-002,7.958926E-002,7.958926E-002,7.958926E-002,7.958926E-002,7.958926E-002,7.958926E-002,7.958926E-002,
   **   ~~~   ** Air System Named = CENTRAL SYSTEM did not converge for energy
   **   ~~~   ** Check values should be zero. Most Recent values listed first.
   **   ~~~   ** Demand-to-Supply interface energy check value iteration history trace: 1577.137719,1577.137719,1577.137719,1577.137718,1577.137718,1577.137718,1577.137718,1577.137718,1577.137718,1577.137718,
   **   ~~~   ** Supply-to-demand interface deck 1 energy check value iteration history trace: 2512.511459,2512.511459,2512.511458,2512.511458,2512.511458,2512.511458,2512.511458,2512.511458,2512.511458,2512.511458,
   ** Warning ** SimHVAC: Maximum iterations (20) exceeded for all HVAC loops, at ANNUAL, 04/28 16:30 - 16:45
   **   ~~~   ** The solution for one or more of the Air Loop HVAC systems did not appear to converge
   **   ~~~   ** Air System Named = CENTRAL SYSTEM did not converge for mass flow rate
   **   ~~~   ** Check values should be zero. Most Recent values listed first.
   **   ~~~   ** Demand-to-Supply interface mass flow rate check value iteration history trace: 6.302756E-002,6.302756E-002,6.302756E-002,6.302756E-002,6.302756E-002,6.302756E-002,6.302756E-002,6.302756E-002,6.302756E-002,6.302756E-002,
   **   ~~~   ** Supply-to-demand interface deck 1 mass flow rate check value iteration history trace: 6.302756E-002,6.302756E-002,6.302756E-002,6.302756E-002,6.302756E-002,6.302756E-002,6.302756E-002,6.302756E-002,6.302756E-002,6.302756E-002,
   **   ~~~   ** Air System Named = CENTRAL SYSTEM did not converge for energy
   **   ~~~   ** Check values should be zero. Most Recent values listed first.
   **   ~~~   ** Demand-to-Supply interface energy check value iteration history trace: 1234.423092,1234.423092,1234.423092,1234.423092,1234.423092,1234.423092,1234.423092,1234.423092,1234.423092,1234.423092,
   **   ~~~   ** Supply-to-demand interface deck 1 energy check value iteration history trace: 2191.009417,2191.009417,2191.009417,2191.009417,2191.009416,2191.009416,2191.009416,2191.009416,2191.009416,2191.009416,
   ** Warning ** SimHVAC: Maximum iterations (20) exceeded for all HVAC loops, at ANNUAL, 05/02 02:30 - 02:45
   **   ~~~   ** The solution for one or more of the Air Loop HVAC systems did not appear to converge
   **   ~~~   ** Air System Named = CENTRAL SYSTEM did not converge for mass flow rate
   **   ~~~   ** Check values should be zero. Most Recent values listed first.
   **   ~~~   ** Demand-to-Supply interface mass flow rate check value iteration history trace: 6.086039E-002,6.086039E-002,6.086039E-002,6.086039E-002,6.086039E-002,6.086039E-002,6.086039E-002,6.086039E-002,6.086039E-002,6.086039E-002,
   **   ~~~   ** Supply-to-demand interface deck 1 mass flow rate check value iteration history trace: 6.086039E-002,6.086039E-002,6.086039E-002,6.086039E-002,6.086039E-002,6.086039E-002,6.086039E-002,6.086039E-002,6.086039E-002,6.086039E-002,
   **   ~~~   ** Air System Named = CENTRAL SYSTEM did not converge for energy
   **   ~~~   ** Check values should be zero. Most Recent values listed first.
   **   ~~~   ** Demand-to-Supply interface energy check value iteration history trace: 1146.529974,1146.529974,1146.529974,1146.529974,1146.529974,1146.529974,1146.529974,1146.529974,1146.529974,1146.529974,
   **   ~~~   ** Supply-to-demand interface deck 1 energy check value iteration history trace: 2019.764298,2019.764297,2019.764297,2019.764297,2019.764297,2019.764297,2019.764297,2019.764297,2019.764297,2019.764297,
   ** Warning ** SimHVAC: Maximum iterations (20) exceeded for all HVAC loops, at ANNUAL, 06/23 05:15 - 05:30
   **   ~~~   ** The solution for one or more of the Air Loop HVAC systems did not appear to converge
   **   ~~~   ** Air System Named = CENTRAL SYSTEM did not converge for mass flow rate
   **   ~~~   ** Check values should be zero. Most Recent values listed first.
   **   ~~~   ** Demand-to-Supply interface mass flow rate check value iteration history trace: 5.458924E-002,5.458924E-002,5.458924E-002,5.458924E-002,5.458924E-002,5.458924E-002,5.458924E-002,5.458924E-002,5.458924E-002,5.458924E-002,
   **   ~~~   ** Supply-to-demand interface deck 1 mass flow rate check value iteration history trace: 5.458924E-002,5.458924E-002,5.458924E-002,5.458924E-002,5.458924E-002,5.458924E-002,5.458924E-002,5.458924E-002,5.458924E-002,5.458924E-002,
   **   ~~~   ** Air System Named = CENTRAL SYSTEM did not converge for energy
   **   ~~~   ** Check values should be zero. Most Recent values listed first.
   **   ~~~   ** Demand-to-Supply interface energy check value iteration history trace: 1303.660301,1303.660302,1303.660302,1303.660303,1303.660303,1303.660304,1303.660304,1303.660304,1303.660305,1303.660305,
   **   ~~~   ** Supply-to-demand interface deck 1 energy check value iteration history trace: 758.898548,758.898549,758.898549,758.898549,758.898549,758.898550,758.898550,758.898550,758.898550,758.898551,
   ** Warning ** SimHVAC: Maximum iterations (20) exceeded for all HVAC loops, at ANNUAL, 09/11 19:45 - 20:00
   **   ~~~   ** The solution for one or more of the Air Loop HVAC systems did not appear to converge
   **   ~~~   ** Air System Named = CENTRAL SYSTEM did not converge for mass flow rate
   **   ~~~   ** Check values should be zero. Most Recent values listed first.
   **   ~~~   ** Demand-to-Supply interface mass flow rate check value iteration history trace: 7.307397E-002,7.307397E-002,7.307397E-002,7.307397E-002,7.307397E-002,7.307397E-002,7.307397E-002,7.307397E-002,7.307397E-002,7.307397E-002,
   **   ~~~   ** Supply-to-demand interface deck 1 mass flow rate check value iteration history trace: 7.307397E-002,7.307397E-002,7.307397E-002,7.307397E-002,7.307397E-002,7.307397E-002,7.307397E-002,7.307397E-002,7.307397E-002,7.307397E-002,
   **   ~~~   ** Air System Named = CENTRAL SYSTEM did not converge for energy
   **   ~~~   ** Check values should be zero. Most Recent values listed first.
   **   ~~~   ** Demand-to-Supply interface energy check value iteration history trace: 1751.427158,1751.427158,1751.427158,1751.427158,1751.427159,1751.427159,1751.427159,1751.427159,1751.427159,1751.427159,
   **   ~~~   ** Supply-to-demand interface deck 1 energy check value iteration history trace: 655.979398,655.979398,655.979398,655.979398,655.979398,655.979398,655.979398,655.979398,655.979398,655.979398,
   ** Warning ** SimHVAC: Maximum iterations (20) exceeded for all HVAC loops, at ANNUAL, 09/13 18:53 - 19:00
   **   ~~~   ** The solution for one or more of the Air Loop HVAC systems did not appear to converge
   **   ~~~   ** Air System Named = CENTRAL SYSTEM did not converge for mass flow rate
   **   ~~~   ** Check values should be zero. Most Recent values listed first.
   **   ~~~   ** Demand-to-Supply interface mass flow rate check value iteration history trace: 7.232243E-002,7.232243E-002,7.232243E-002,7.232243E-002,7.232243E-002,7.232243E-002,7.232243E-002,7.232243E-002,7.232243E-002,7.232243E-002,
   **   ~~~   ** Supply-to-demand interface deck 1 mass flow rate check value iteration history trace: 7.232243E-002,7.232243E-002,7.232243E-002,7.232243E-002,7.232243E-002,7.232243E-002,7.232243E-002,7.232243E-002,7.232243E-002,7.232243E-002,
   **   ~~~   ** Air System Named = CENTRAL SYSTEM did not converge for energy
   **   ~~~   ** Check values should be zero. Most Recent values listed first.
   **   ~~~   ** Demand-to-Supply interface energy check value iteration history trace: 1699.100586,1699.100586,1699.100586,1699.100586,1699.100586,1699.100586,1699.100586,1699.100587,1699.100587,1699.100587,
   **   ~~~   ** Supply-to-demand interface deck 1 energy check value iteration history trace: 638.854569,638.854569,638.854569,638.854569,638.854569,638.854569,638.854569,638.854569,638.854569,638.854569,
   ** Warning ** SimHVAC: Maximum iterations (20) exceeded for all HVAC loops, at ANNUAL, 11/05 11:30 - 11:45
   **   ~~~   ** The solution for one or more of the Air Loop HVAC systems did not appear to converge
   **   ~~~   ** Air System Named = CENTRAL SYSTEM did not converge for mass flow rate
   **   ~~~   ** Check values should be zero. Most Recent values listed first.
   **   ~~~   ** Demand-to-Supply interface mass flow rate check value iteration history trace: 5.417980E-002,5.417980E-002,5.417980E-002,5.417980E-002,5.417980E-002,5.417980E-002,5.417980E-002,5.417980E-002,5.417980E-002,5.417980E-002,
   **   ~~~   ** Supply-to-demand interface deck 1 mass flow rate check value iteration history trace: 5.417980E-002,5.417980E-002,5.417980E-002,5.417980E-002,5.417980E-002,5.417980E-002,5.417980E-002,5.417980E-002,5.417980E-002,5.417980E-002,
   **   ~~~   ** Air System Named = CENTRAL SYSTEM did not converge for energy
   **   ~~~   ** Check values should be zero. Most Recent values listed first.
   **   ~~~   ** Demand-to-Supply interface energy check value iteration history trace: 1068.970959,1068.970959,1068.970959,1068.970959,1068.970959,1068.970959,1068.970959,1068.970959,1068.970959,1068.970959,
   **   ~~~   ** Supply-to-demand interface deck 1 energy check value iteration history trace: 1819.050301,1819.050301,1819.050301,1819.050301,1819.050301,1819.050300,1819.050300,1819.050300,1819.050300,1819.050300,
   ************* Simulation Error Summary *************
   ** Warning ** The following Report Variables were requested but not generated -- check.rdd file
   **   ~~~   ** Either the IDF did not contain these elements, the variable name is misspelled,
   **   ~~~   ** or the requested variable is an advanced output which requires Output : Diagnostics, DisplayAdvancedReportVariables;
   ************* Key=*, VarName=BASEBOARD TOTAL HEATING ENERGY, Frequency=
   ************* Key=*, VarName=WATER HEATER NATURALGAS ENERGY, Frequency=
   ************* Key=*, VarName=COOLING COIL TOTAL HEATING ENERGY, Frequency=
   ************* There are 34 unused schedules in input.
   ************* There are 388 unused week schedules in input.
   ************* There are 396 unused day schedules in input.
   ************* Use Output:Diagnostics,DisplayUnusedSchedules; to see them.
   *************
   ************* ===== Recurring Error Summary =====
   ************* The following recurring error messages occurred.
   *************
   *************  ** Warning ** "TOTAL HOT WATER LOAD" - Target water temperature should be less than or equal to the hot water temperature error continues...
   *************  **   ~~~   **   This error occurred 46773 total times;
   *************  **   ~~~   **   during Warmup 0 times;
   *************  **   ~~~   **   during Sizing 0 times.
   *************  **   ~~~   **   Max=7.108144  Min=1.059327E-003
   *************
   *************
   ************* ===== Final Error Summary =====
   ************* The following error categories occurred.  Consider correcting or noting.
   ************* Nominally Unused Constructions
   ************* ..The nominally unused constructions warning is provided to alert you to potential conditions that can cause
   ************* ..extra time during simulation. Each construction is calculated by the algorithm indicated in the HeatBalanceAlgorithm
   ************* ..object. You may remove the constructions indicated (when you use the DisplayExtraWarnings option).
   *************
   ************* EnergyPlus Warmup Error Summary. During Warmup: 0 Warning; 0 Severe Errors.
   ************* EnergyPlus Sizing Error Summary. During Sizing: 4 Warning; 0 Severe Errors.
   ************* EnergyPlus Completed Successfully-- 46801 Warning; 0 Severe Errors; Elapsed Time=00hr 01min 22.29sec
