Program Version,EnergyPlus, Version 22.2.0-c249759bad, YMD=2023.09.01 19:12,
   ************* Beginning Zone Sizing Calculations
   ** Warning ** ProcessScheduleInput: Schedule:Constant="ALWAYS ON DISCRETE", Schedule Type Limits Name="ONOFF" not found -- will not be validated
   ** Warning ** Foundation:Kiva="KIVA FOUNDATION", no Interior Horizontal Insulation Material Name defined
   **   ~~~   ** Interior Horizontal Insulation Depth will not be used.
   ** Warning ** CheckUsedConstructions: There are 15 nominally unused constructions in input.
   **   ~~~   ** Each Unused construction is shown.
   ************* Construction=INTERIOR FLOOR
   ************* Construction=INTERIOR WINDOW
   ************* Construction=EXTERIOR DOOR
   ************* Construction=INTERIOR DOOR
   ************* Construction=GABLE CONSTRUCTION
   ************* Construction=CRAWL_FLOOR
   ************* Construction=INSULATED PIPE
   ************* Construction=PLAIN PIPE
   ************* Construction=TDD PIPE
   ************* Construction=TDD DOME
   ************* Construction=TDD DIFFUSER
   ************* Construction=CRAWL WALL
   ************* Construction=CEILING-FLOOR-LAYER
   ************* Construction=SLAB CONSTRUCTION W FULL R10 INSULATION
   ************* Construction=SLAB CONSTRUCTION W FULL R5 INSULATION
   ** Warning ** GetDXCoils: Coil:Heating:DX:SingleSpeed="DX_HEATING_COIL" curve values
   **   ~~~   ** ... Defrost Energy Input Ratio Function of Temperature Curve Name = DEFROSTEIR output is not equal to 1.0 (+ or - 10%) at rated conditions.
   **   ~~~   ** ... Curve output at rated conditions = 0.152
   ************* Beginning System Sizing Calculations
   ************* Beginning Plant Sizing Calculations
   ** Warning ** Coil:WaterHeating:AirToWaterHeatPump:Wrapped "HEAT PUMP WATER HEATER EVAPORATOR": Rated air volume flow rate per watt of rated total water heating capacity is out of range
   **   ~~~   ** Min Rated Vol Flow Per Watt=[4.027E-005], Rated Vol Flow Per Watt=[1.510E-004], Max Rated Vol Flow Per Watt=[8.056E-005]. See Input-Output Reference Manual for valid range.
   ************* SizeFan: : Potential issue with equipment sizing for Fan:OnOff HEAT PUMP WATER HEATER FAN
   **   ~~~   ** User-Specified Maximum Flow Rate [m3/s] = 0.22653
   **   ~~~   ** differs from Design Size Maximum Flow Rate [m3/s] = 7.55250E-002
   **   ~~~   ** This may, or may not, indicate mismatched component sizes.
   **   ~~~   ** Verify that the value entered is intended and is consistent with other components.
   ** Warning ** Water heater = WATER HEATER TANK:  Recovery Efficiency and Energy Factor could not be calculated during the test for standard ratings
   **   ~~~   ** Setpoint was never recovered and/or heater never turned on
   ** Warning ** Check input. Pump nominal power or motor efficiency is set to 0, for pump=MAINS PRESSURE
   ** Warning ** Output:Meter: invalid Key Name="ELECTRIC_RANGE:INTERIOREQUIPMENT:ELECTRICITY" - not found.
   ** Warning ** Output:Meter: invalid Key Name="ELECTRIC_DRYER:INTERIOREQUIPMENT:ELECTRICITY" - not found.
   ** Warning ** Output:Meter: invalid Key Name="HEATRECOVERY:ELECTRICITY" - not found.
   ** Warning ** Output:Meter: invalid Key Name="HEATING:NATURALGAS" - not found.
   ** Warning ** Output:Meter: invalid Key Name="WATERSYSTEMS:NATURALGAS" - not found.
   ** Warning ** Output:Meter: invalid Key Name="PROPANE:FACILITY" - not found.
   ** Warning ** Output:Meter: invalid Key Name="HEATING:PROPANE" - not found.
   ************* Testing Individual Branch Integrity
   ************* All Branches passed integrity testing
   ************* Testing Individual Supply Air Path Integrity
   ************* All Supply Air Paths passed integrity testing
   ************* Testing Individual Return Air Path Integrity
   ************* All Return Air Paths passed integrity testing
   ************* No node connection errors were found.
   ************* Beginning Simulation
   ** Warning ** AirflowNetwork::Solver::validate_distribution: Heat pump water heater is simulated along with an AirflowNetwork but is not included in the AirflowNetwork.
   ** Warning ** CalcEquipmentFlowRates: "TOTAL HOT WATER LOAD" - Target water temperature is greater than the hot water temperature by (0.98 C)
   **   ~~~   **  Environment=EXTREME_WINTER, at Simulation time=12/22 06:45 - 07:00
   **   ~~~   ** ...target water temperature     = 53.33 C
   **   ~~~   ** ...hot water temperature        = 52.35 C
   **   ~~~   ** ...Target water temperature should be less than or equal to the hot water temperature. Verify temperature setpoints and schedules.
   ** Warning ** SimHVAC: Maximum iterations (20) exceeded for all HVAC loops, at ANNUAL, 01/10 11:15 - 11:30
   **   ~~~   ** The solution for one or more of the Air Loop HVAC systems did not appear to converge
   **   ~~~   ** Air System Named = CENTRAL SYSTEM did not converge for mass flow rate
   **   ~~~   ** Check values should be zero. Most Recent values listed first.
   **   ~~~   ** Demand-to-Supply interface mass flow rate check value iteration history trace: 7.157313E-002,7.157313E-002,7.157313E-002,7.157313E-002,7.157313E-002,7.157313E-002,7.157313E-002,7.157313E-002,7.157313E-002,7.157313E-002,
   **   ~~~   ** Supply-to-demand interface deck 1 mass flow rate check value iteration history trace: 7.157313E-002,7.157313E-002,7.157313E-002,7.157313E-002,7.157313E-002,7.157313E-002,7.157313E-002,7.157313E-002,7.157313E-002,7.157313E-002,
   **   ~~~   ** Air System Named = CENTRAL SYSTEM did not converge for energy
   **   ~~~   ** Check values should be zero. Most Recent values listed first.
   **   ~~~   ** Demand-to-Supply interface energy check value iteration history trace: 1416.784012,1416.784012,1416.784012,1416.784012,1416.784012,1416.784011,1416.784011,1416.784011,1416.784011,1416.784011,
   **   ~~~   ** Supply-to-demand interface deck 1 energy check value iteration history trace: 2373.698823,2373.698823,2373.698823,2373.698823,2373.698823,2373.698823,2373.698823,2373.698823,2373.698822,2373.698822,
   ** Warning ** SimHVAC: Maximum iterations (20) exceeded for all HVAC loops, at ANNUAL, 01/15 12:45 - 13:00
   **   ~~~   ** The solution for one or more of the Air Loop HVAC systems did not appear to converge
   **   ~~~   ** Air System Named = CENTRAL SYSTEM did not converge for mass flow rate
   **   ~~~   ** Check values should be zero. Most Recent values listed first.
   **   ~~~   ** Demand-to-Supply interface mass flow rate check value iteration history trace: 9.306718E-002,9.306718E-002,9.306718E-002,9.306718E-002,9.306718E-002,9.306718E-002,9.306718E-002,9.306718E-002,9.306718E-002,9.306718E-002,
   **   ~~~   ** Supply-to-demand interface deck 1 mass flow rate check value iteration history trace: 9.306718E-002,9.306718E-002,9.306718E-002,9.306718E-002,9.306718E-002,9.306718E-002,9.306718E-002,9.306718E-002,9.306718E-002,9.306718E-002,
   **   ~~~   ** Air System Named = CENTRAL SYSTEM did not converge for energy
   **   ~~~   ** Check values should be zero. Most Recent values listed first.
   **   ~~~   ** Demand-to-Supply interface energy check value iteration history trace: 1844.922130,1844.922130,1844.922130,1844.922130,1844.922129,1844.922129,1844.922129,1844.922129,1844.922129,1844.922129,
   **   ~~~   ** Supply-to-demand interface deck 1 energy check value iteration history trace: 2736.249119,2736.249119,2736.249118,2736.249118,2736.249118,2736.249118,2736.249117,2736.249117,2736.249117,2736.249117,
   ** Warning ** SimHVAC: Maximum iterations (20) exceeded for all HVAC loops, at ANNUAL, 01/28 14:45 - 15:00
   **   ~~~   ** The solution for one or more of the Air Loop HVAC systems did not appear to converge
   **   ~~~   ** Air System Named = CENTRAL SYSTEM did not converge for mass flow rate
   **   ~~~   ** Check values should be zero. Most Recent values listed first.
   **   ~~~   ** Demand-to-Supply interface mass flow rate check value iteration history trace: 6.198621E-002,6.198621E-002,6.198621E-002,6.198621E-002,6.198621E-002,6.198621E-002,6.198621E-002,6.198621E-002,6.198621E-002,6.198621E-002,
   **   ~~~   ** Supply-to-demand interface deck 1 mass flow rate check value iteration history trace: 6.198621E-002,6.198621E-002,6.198621E-002,6.198621E-002,6.198621E-002,6.198621E-002,6.198621E-002,6.198621E-002,6.198621E-002,6.198621E-002,
   **   ~~~   ** Air System Named = CENTRAL SYSTEM did not converge for energy
   **   ~~~   ** Check values should be zero. Most Recent values listed first.
   **   ~~~   ** Demand-to-Supply interface energy check value iteration history trace: 1228.636785,1228.636785,1228.636785,1228.636785,1228.636785,1228.636785,1228.636785,1228.636784,1228.636784,1228.636784,
   **   ~~~   ** Supply-to-demand interface deck 1 energy check value iteration history trace: 1908.816830,1908.816830,1908.816830,1908.816830,1908.816830,1908.816830,1908.816830,1908.816830,1908.816829,1908.816829,
   ** Warning ** SimHVAC: Maximum iterations (20) exceeded for all HVAC loops, at ANNUAL, 01/28 14:45 - 14:52
   **   ~~~   ** The solution for one or more of the Air Loop HVAC systems did not appear to converge
   **   ~~~   ** Air System Named = CENTRAL SYSTEM did not converge for mass flow rate
   **   ~~~   ** Check values should be zero. Most Recent values listed first.
   **   ~~~   ** Demand-to-Supply interface mass flow rate check value iteration history trace: 6.237853E-002,6.237853E-002,6.237853E-002,6.237853E-002,6.237853E-002,6.237853E-002,6.237853E-002,6.237853E-002,6.237853E-002,6.237853E-002,
   **   ~~~   ** Supply-to-demand interface deck 1 mass flow rate check value iteration history trace: 6.237853E-002,6.237853E-002,6.237853E-002,6.237853E-002,6.237853E-002,6.237853E-002,6.237853E-002,6.237853E-002,6.237853E-002,6.237853E-002,
   **   ~~~   ** Air System Named = CENTRAL SYSTEM did not converge for energy
   **   ~~~   ** Check values should be zero. Most Recent values listed first.
   **   ~~~   ** Demand-to-Supply interface energy check value iteration history trace: 1236.412983,1236.412983,1236.412983,1236.412983,1236.412983,1236.412983,1236.412983,1236.412983,1236.412983,1236.412983,
   **   ~~~   ** Supply-to-demand interface deck 1 energy check value iteration history trace: 1920.895800,1920.895800,1920.895800,1920.895800,1920.895800,1920.895799,1920.895799,1920.895799,1920.895799,1920.895799,
   ** Warning ** SimHVAC: Maximum iterations (20) exceeded for all HVAC loops, at ANNUAL, 02/06 10:30 - 10:38
   **   ~~~   ** The solution for one or more of the Air Loop HVAC systems did not appear to converge
   **   ~~~   ** Air System Named = CENTRAL SYSTEM did not converge for mass flow rate
   **   ~~~   ** Check values should be zero. Most Recent values listed first.
   **   ~~~   ** Demand-to-Supply interface mass flow rate check value iteration history trace: 5.214646E-002,5.214646E-002,5.214646E-002,5.214646E-002,5.214646E-002,5.214646E-002,5.214646E-002,5.214646E-002,5.214646E-002,5.214646E-002,
   **   ~~~   ** Supply-to-demand interface deck 1 mass flow rate check value iteration history trace: 5.214646E-002,5.214646E-002,5.214646E-002,5.214646E-002,5.214646E-002,5.214646E-002,5.214646E-002,5.214646E-002,5.214646E-002,5.214646E-002,
   **   ~~~   ** Air System Named = CENTRAL SYSTEM did not converge for energy
   **   ~~~   ** Check values should be zero. Most Recent values listed first.
   **   ~~~   ** Demand-to-Supply interface energy check value iteration history trace: 1033.278618,1033.278618,1033.278618,1033.278618,1033.278618,1033.278618,1033.278617,1033.278617,1033.278617,1033.278617,
   **   ~~~   ** Supply-to-demand interface deck 1 energy check value iteration history trace: 1562.687822,1562.687822,1562.687821,1562.687821,1562.687821,1562.687821,1562.687821,1562.687821,1562.687821,1562.687821,
   ** Warning ** SimHVAC: Maximum iterations (20) exceeded for all HVAC loops, at ANNUAL, 03/30 09:15 - 09:30
   **   ~~~   ** The solution for one or more of the Air Loop HVAC systems did not appear to converge
   **   ~~~   ** Air System Named = CENTRAL SYSTEM did not converge for mass flow rate
   **   ~~~   ** Check values should be zero. Most Recent values listed first.
   **   ~~~   ** Demand-to-Supply interface mass flow rate check value iteration history trace: 8.283183E-002,8.283183E-002,8.283183E-002,8.283183E-002,8.283183E-002,8.283183E-002,8.283183E-002,8.283183E-002,8.283183E-002,8.283183E-002,
   **   ~~~   ** Supply-to-demand interface deck 1 mass flow rate check value iteration history trace: 8.283183E-002,8.283183E-002,8.283183E-002,8.283183E-002,8.283183E-002,8.283183E-002,8.283183E-002,8.283183E-002,8.283183E-002,8.283183E-002,
   **   ~~~   ** Air System Named = CENTRAL SYSTEM did not converge for energy
   **   ~~~   ** Check values should be zero. Most Recent values listed first.
   **   ~~~   ** Demand-to-Supply interface energy check value iteration history trace: 1641.583242,1641.583242,1641.583242,1641.583242,1641.583242,1641.583242,1641.583242,1641.583242,1641.583242,1641.583242,
   **   ~~~   ** Supply-to-demand interface deck 1 energy check value iteration history trace: 2733.812497,2733.812497,2733.812497,2733.812497,2733.812497,2733.812496,2733.812496,2733.812496,2733.812496,2733.812496,
   ** Warning ** SimHVAC: Maximum iterations (20) exceeded for all HVAC loops, at ANNUAL, 04/02 14:30 - 14:45
   **   ~~~   ** The solution for one or more of the Air Loop HVAC systems did not appear to converge
   **   ~~~   ** Air System Named = CENTRAL SYSTEM did not converge for mass flow rate
   **   ~~~   ** Check values should be zero. Most Recent values listed first.
   **   ~~~   ** Demand-to-Supply interface mass flow rate check value iteration history trace: 6.025047E-002,6.025047E-002,6.025047E-002,6.025047E-002,6.025047E-002,6.025047E-002,6.025047E-002,6.025047E-002,6.025047E-002,6.025047E-002,
   **   ~~~   ** Supply-to-demand interface deck 1 mass flow rate check value iteration history trace: 6.025047E-002,6.025047E-002,6.025047E-002,6.025047E-002,6.025047E-002,6.025047E-002,6.025047E-002,6.025047E-002,6.025047E-002,6.025047E-002,
   **   ~~~   ** Air System Named = CENTRAL SYSTEM did not converge for energy
   **   ~~~   ** Check values should be zero. Most Recent values listed first.
   **   ~~~   ** Demand-to-Supply interface energy check value iteration history trace: 1182.637020,1182.637020,1182.637020,1182.637020,1182.637020,1182.637020,1182.637020,1182.637020,1182.637020,1182.637019,
   **   ~~~   ** Supply-to-demand interface deck 1 energy check value iteration history trace: 1841.748974,1841.748974,1841.748974,1841.748973,1841.748973,1841.748973,1841.748973,1841.748973,1841.748973,1841.748973,
   ** Warning ** SimHVAC: Maximum iterations (20) exceeded for all HVAC loops, at ANNUAL, 04/09 13:15 - 13:30
   **   ~~~   ** The solution for one or more of the Air Loop HVAC systems did not appear to converge
   **   ~~~   ** Air System Named = CENTRAL SYSTEM did not converge for mass flow rate
   **   ~~~   ** Check values should be zero. Most Recent values listed first.
   **   ~~~   ** Demand-to-Supply interface mass flow rate check value iteration history trace: 6.718883E-002,6.718883E-002,6.718883E-002,6.718883E-002,6.718883E-002,6.718883E-002,6.718883E-002,6.718883E-002,6.718883E-002,6.718883E-002,
   **   ~~~   ** Supply-to-demand interface deck 1 mass flow rate check value iteration history trace: 6.718883E-002,6.718883E-002,6.718883E-002,6.718883E-002,6.718883E-002,6.718883E-002,6.718883E-002,6.718883E-002,6.718883E-002,6.718883E-002,
   **   ~~~   ** Air System Named = CENTRAL SYSTEM did not converge for energy
   **   ~~~   ** Check values should be zero. Most Recent values listed first.
   **   ~~~   ** Demand-to-Supply interface energy check value iteration history trace: 1331.206458,1331.206458,1331.206458,1331.206458,1331.206458,1331.206458,1331.206458,1331.206458,1331.206458,1331.206458,
   **   ~~~   ** Supply-to-demand interface deck 1 energy check value iteration history trace: 2280.434210,2280.434210,2280.434210,2280.434210,2280.434210,2280.434209,2280.434209,2280.434209,2280.434209,2280.434209,
   ** Warning ** SimHVAC: Maximum iterations (20) exceeded for all HVAC loops, at ANNUAL, 05/06 23:00 - 23:15
   **   ~~~   ** The solution for one or more of the Air Loop HVAC systems did not appear to converge
   **   ~~~   ** Air System Named = CENTRAL SYSTEM did not converge for mass flow rate
   **   ~~~   ** Check values should be zero. Most Recent values listed first.
   **   ~~~   ** Demand-to-Supply interface mass flow rate check value iteration history trace: 6.228777E-002,6.228777E-002,6.228777E-002,6.228777E-002,6.228777E-002,6.228777E-002,6.228777E-002,6.228777E-002,6.228777E-002,6.228777E-002,
   **   ~~~   ** Supply-to-demand interface deck 1 mass flow rate check value iteration history trace: 6.228777E-002,6.228777E-002,6.228777E-002,6.228777E-002,6.228777E-002,6.228777E-002,6.228777E-002,6.228777E-002,6.228777E-002,6.228777E-002,
   **   ~~~   ** Air System Named = CENTRAL SYSTEM did not converge for energy
   **   ~~~   ** Check values should be zero. Most Recent values listed first.
   **   ~~~   ** Demand-to-Supply interface energy check value iteration history trace: 1180.939800,1180.939800,1180.939800,1180.939800,1180.939800,1180.939799,1180.939799,1180.939799,1180.939799,1180.939799,
   **   ~~~   ** Supply-to-demand interface deck 1 energy check value iteration history trace: 2047.017743,2047.017743,2047.017743,2047.017742,2047.017742,2047.017742,2047.017742,2047.017742,2047.017742,2047.017742,
   ** Warning ** SimHVAC: Maximum iterations (20) exceeded for all HVAC loops, at ANNUAL, 05/06 23:10 - 23:15
   **   ~~~   ** The solution for one or more of the Air Loop HVAC systems did not appear to converge
   **   ~~~   ** Air System Named = CENTRAL SYSTEM did not converge for mass flow rate
   **   ~~~   ** Check values should be zero. Most Recent values listed first.
   **   ~~~   ** Demand-to-Supply interface mass flow rate check value iteration history trace: 6.241507E-002,6.241507E-002,6.241507E-002,6.241507E-002,6.241507E-002,6.241507E-002,6.241507E-002,6.241507E-002,6.241507E-002,6.241507E-002,
   **   ~~~   ** Supply-to-demand interface deck 1 mass flow rate check value iteration history trace: 6.241507E-002,6.241507E-002,6.241507E-002,6.241507E-002,6.241507E-002,6.241507E-002,6.241507E-002,6.241507E-002,6.241507E-002,6.241507E-002,
   **   ~~~   ** Air System Named = CENTRAL SYSTEM did not converge for energy
   **   ~~~   ** Check values should be zero. Most Recent values listed first.
   **   ~~~   ** Demand-to-Supply interface energy check value iteration history trace: 1173.919223,1173.919223,1173.919223,1173.919223,1173.919223,1173.919223,1173.919223,1173.919223,1173.919222,1173.919222,
   **   ~~~   ** Supply-to-demand interface deck 1 energy check value iteration history trace: 2042.311006,2042.311006,2042.311005,2042.311005,2042.311005,2042.311005,2042.311005,2042.311005,2042.311005,2042.311005,
   ** Warning ** SimHVAC: Maximum iterations (20) exceeded for all HVAC loops, at ANNUAL, 05/08 09:30 - 09:45
   **   ~~~   ** The solution for one or more of the Air Loop HVAC systems did not appear to converge
   **   ~~~   ** Air System Named = CENTRAL SYSTEM did not converge for mass flow rate
   **   ~~~   ** Check values should be zero. Most Recent values listed first.
   **   ~~~   ** Demand-to-Supply interface mass flow rate check value iteration history trace: 6.145822E-002,6.145822E-002,6.145822E-002,6.145822E-002,6.145822E-002,6.145822E-002,6.145822E-002,6.145822E-002,6.145822E-002,6.145822E-002,
   **   ~~~   ** Supply-to-demand interface deck 1 mass flow rate check value iteration history trace: 6.145822E-002,6.145822E-002,6.145822E-002,6.145822E-002,6.145822E-002,6.145822E-002,6.145822E-002,6.145822E-002,6.145822E-002,6.145822E-002,
   **   ~~~   ** Air System Named = CENTRAL SYSTEM did not converge for energy
   **   ~~~   ** Check values should be zero. Most Recent values listed first.
   **   ~~~   ** Demand-to-Supply interface energy check value iteration history trace: 1217.851743,1217.851743,1217.851743,1217.851743,1217.851743,1217.851743,1217.851743,1217.851743,1217.851742,1217.851742,
   **   ~~~   ** Supply-to-demand interface deck 1 energy check value iteration history trace: 2092.209981,2092.209980,2092.209980,2092.209980,2092.209980,2092.209980,2092.209980,2092.209980,2092.209980,2092.209980,
   ** Warning ** SimHVAC: Maximum iterations (20) exceeded for all HVAC loops, at ANNUAL, 05/09 10:15 - 10:30
   **   ~~~   ** The solution for one or more of the Air Loop HVAC systems did not appear to converge
   **   ~~~   ** Air System Named = CENTRAL SYSTEM did not converge for mass flow rate
   **   ~~~   ** Check values should be zero. Most Recent values listed first.
   **   ~~~   ** Demand-to-Supply interface mass flow rate check value iteration history trace: 6.001382E-002,6.001382E-002,6.001382E-002,6.001382E-002,6.001382E-002,6.001382E-002,6.001382E-002,6.001382E-002,6.001382E-002,6.001382E-002,
   **   ~~~   ** Supply-to-demand interface deck 1 mass flow rate check value iteration history trace: 6.001382E-002,6.001382E-002,6.001382E-002,6.001382E-002,6.001382E-002,6.001382E-002,6.001382E-002,6.001382E-002,6.001382E-002,6.001382E-002,
   **   ~~~   ** Air System Named = CENTRAL SYSTEM did not converge for energy
   **   ~~~   ** Check values should be zero. Most Recent values listed first.
   **   ~~~   ** Demand-to-Supply interface energy check value iteration history trace: 1189.319979,1189.319979,1189.319979,1189.319979,1189.319979,1189.319979,1189.319979,1189.319979,1189.319979,1189.319979,
   **   ~~~   ** Supply-to-demand interface deck 1 energy check value iteration history trace: 2076.593440,2076.593440,2076.593440,2076.593440,2076.593440,2076.593440,2076.593440,2076.593440,2076.593439,2076.593439,
   ** Warning ** SimHVAC: Maximum iterations (20) exceeded for all HVAC loops, at ANNUAL, 05/11 07:03 - 07:05
   **   ~~~   ** The solution for one or more of the Air Loop HVAC systems did not appear to converge
   **   ~~~   ** Air System Named = CENTRAL SYSTEM did not converge for mass flow rate
   **   ~~~   ** Check values should be zero. Most Recent values listed first.
   **   ~~~   ** Demand-to-Supply interface mass flow rate check value iteration history trace: 5.476480E-002,5.476480E-002,5.476480E-002,5.476480E-002,5.476480E-002,5.476480E-002,5.476480E-002,5.476480E-002,5.476480E-002,5.476480E-002,
   **   ~~~   ** Supply-to-demand interface deck 1 mass flow rate check value iteration history trace: 5.476480E-002,5.476480E-002,5.476480E-002,5.476480E-002,5.476480E-002,5.476480E-002,5.476480E-002,5.476480E-002,5.476480E-002,5.476480E-002,
   **   ~~~   ** Air System Named = CENTRAL SYSTEM did not converge for energy
   **   ~~~   ** Check values should be zero. Most Recent values listed first.
   **   ~~~   ** Demand-to-Supply interface energy check value iteration history trace: 1083.156533,1083.156533,1083.156533,1083.156533,1083.156533,1083.156533,1083.156533,1083.156533,1083.156533,1083.156533,
   **   ~~~   ** Supply-to-demand interface deck 1 energy check value iteration history trace: 1886.574956,1886.574956,1886.574955,1886.574955,1886.574955,1886.574955,1886.574955,1886.574955,1886.574955,1886.574955,
   ** Warning ** SimHVAC: Maximum iterations (20) exceeded for all HVAC loops, at ANNUAL, 05/17 11:38 - 11:45
   **   ~~~   ** The solution for one or more of the Air Loop HVAC systems did not appear to converge
   **   ~~~   ** Air System Named = CENTRAL SYSTEM did not converge for mass flow rate
   **   ~~~   ** Check values should be zero. Most Recent values listed first.
   **   ~~~   ** Demand-to-Supply interface mass flow rate check value iteration history trace: 5.398448E-002,5.398448E-002,5.398448E-002,5.398448E-002,5.398448E-002,5.398448E-002,5.398448E-002,5.398448E-002,5.398448E-002,5.398448E-002,
   **   ~~~   ** Supply-to-demand interface deck 1 mass flow rate check value iteration history trace: 5.398448E-002,5.398448E-002,5.398448E-002,5.398448E-002,5.398448E-002,5.398448E-002,5.398448E-002,5.398448E-002,5.398448E-002,5.398448E-002,
   **   ~~~   ** Air System Named = CENTRAL SYSTEM did not converge for energy
   **   ~~~   ** Check values should be zero. Most Recent values listed first.
   **   ~~~   ** Demand-to-Supply interface energy check value iteration history trace: 1069.621864,1069.621864,1069.621864,1069.621863,1069.621863,1069.621863,1069.621863,1069.621862,1069.621862,1069.621862,
   **   ~~~   ** Supply-to-demand interface deck 1 energy check value iteration history trace: 1842.952021,1842.952020,1842.952020,1842.952020,1842.952019,1842.952019,1842.952018,1842.952018,1842.952018,1842.952017,
   ************* Simulation Error Summary *************
   ** Warning ** The following Report Variables were requested but not generated -- check.rdd file
   **   ~~~   ** Either the IDF did not contain these elements, the variable name is misspelled,
   **   ~~~   ** or the requested variable is an advanced output which requires Output : Diagnostics, DisplayAdvancedReportVariables;
   ************* Key=*, VarName=BASEBOARD TOTAL HEATING ENERGY, Frequency=
   ************* Key=*, VarName=WATER HEATER NATURALGAS ENERGY, Frequency=
   ************* Key=*, VarName=COOLING COIL TOTAL HEATING ENERGY, Frequency=
   ************* There are 34 unused schedules in input.
   ************* There are 388 unused week schedules in input.
   ************* There are 397 unused day schedules in input.
   ************* Use Output:Diagnostics,DisplayUnusedSchedules; to see them.
   *************
   ************* ===== Recurring Error Summary =====
   ************* The following recurring error messages occurred.
   *************
   *************  ** Warning ** "TOTAL HOT WATER LOAD" - Target water temperature should be less than or equal to the hot water temperature error continues...
   *************  **   ~~~   **   This error occurred 91641 total times;
   *************  **   ~~~   **   during Warmup 0 times;
   *************  **   ~~~   **   during Sizing 0 times.
   *************  **   ~~~   **   Max=9.766296  Min=1.395684E-003
   *************
   *************  ** Warning ** SimHVAC: Exceeding Maximum iterations for all HVAC loops, during ANNUAL continues
   *************  **   ~~~   **   This error occurred 11 total times;
   *************  **   ~~~   **   during Warmup 0 times;
   *************  **   ~~~   **   during Sizing 0 times.
   *************
   *************
   ************* ===== Final Error Summary =====
   ************* The following error categories occurred.  Consider correcting or noting.
   ************* Nominally Unused Constructions
   ************* ..The nominally unused constructions warning is provided to alert you to potential conditions that can cause
   ************* ..extra time during simulation. Each construction is calculated by the algorithm indicated in the HeatBalanceAlgorithm
   ************* ..object. You may remove the constructions indicated (when you use the DisplayExtraWarnings option).
   *************
   ************* EnergyPlus Warmup Error Summary. During Warmup: 1 Warning; 0 Severe Errors.
   ************* EnergyPlus Sizing Error Summary. During Sizing: 4 Warning; 0 Severe Errors.
   ************* EnergyPlus Completed Successfully-- 91683 Warning; 0 Severe Errors; Elapsed Time=00hr 01min 30.39sec
