Program Version,EnergyPlus, Version 22.2.0-c249759bad, YMD=2023.09.01 19:56,
   ************* Beginning Zone Sizing Calculations
   ** Warning ** ProcessScheduleInput: Schedule:Constant="ALWAYS ON DISCRETE", Schedule Type Limits Name="ONOFF" not found -- will not be validated
   ** Warning ** Foundation:Kiva="KIVA FOUNDATION", no Interior Horizontal Insulation Material Name defined
   **   ~~~   ** Interior Horizontal Insulation Depth will not be used.
   ** Warning ** CheckUsedConstructions: There are 15 nominally unused constructions in input.
   **   ~~~   ** Each Unused construction is shown.
   ************* Construction=INTERIOR FLOOR
   ************* Construction=INTERIOR WINDOW
   ************* Construction=EXTERIOR DOOR
   ************* Construction=INTERIOR DOOR
   ************* Construction=GABLE CONSTRUCTION
   ************* Construction=CRAWL_FLOOR
   ************* Construction=INSULATED PIPE
   ************* Construction=PLAIN PIPE
   ************* Construction=TDD PIPE
   ************* Construction=TDD DOME
   ************* Construction=TDD DIFFUSER
   ************* Construction=CRAWL WALL
   ************* Construction=CEILING-FLOOR-LAYER
   ************* Construction=SLAB CONSTRUCTION W FULL R10 INSULATION
   ************* Construction=SLAB CONSTRUCTION W FULL R5 INSULATION
   ** Warning ** GetDXCoils: Coil:Heating:DX:SingleSpeed="DX_HEATING_COIL" curve values
   **   ~~~   ** ... Defrost Energy Input Ratio Function of Temperature Curve Name = DEFROSTEIR output is not equal to 1.0 (+ or - 10%) at rated conditions.
   **   ~~~   ** ... Curve output at rated conditions = 0.152
   ************* Beginning System Sizing Calculations
   ************* Beginning Plant Sizing Calculations
   ** Warning ** Coil:WaterHeating:AirToWaterHeatPump:Wrapped "HEAT PUMP WATER HEATER EVAPORATOR": Rated air volume flow rate per watt of rated total water heating capacity is out of range
   **   ~~~   ** Min Rated Vol Flow Per Watt=[4.027E-005], Rated Vol Flow Per Watt=[1.510E-004], Max Rated Vol Flow Per Watt=[8.056E-005]. See Input-Output Reference Manual for valid range.
   ************* SizeFan: : Potential issue with equipment sizing for Fan:OnOff HEAT PUMP WATER HEATER FAN
   **   ~~~   ** User-Specified Maximum Flow Rate [m3/s] = 0.22653
   **   ~~~   ** differs from Design Size Maximum Flow Rate [m3/s] = 7.55250E-002
   **   ~~~   ** This may, or may not, indicate mismatched component sizes.
   **   ~~~   ** Verify that the value entered is intended and is consistent with other components.
   ** Warning ** Water heater = WATER HEATER TANK:  Recovery Efficiency and Energy Factor could not be calculated during the test for standard ratings
   **   ~~~   ** Setpoint was never recovered and/or heater never turned on
   ** Warning ** Check input. Pump nominal power or motor efficiency is set to 0, for pump=MAINS PRESSURE
   ** Warning ** Output:Meter: invalid Key Name="ELECTRIC_RANGE:INTERIOREQUIPMENT:ELECTRICITY" - not found.
   ** Warning ** Output:Meter: invalid Key Name="ELECTRIC_DRYER:INTERIOREQUIPMENT:ELECTRICITY" - not found.
   ** Warning ** Output:Meter: invalid Key Name="HEATRECOVERY:ELECTRICITY" - not found.
   ** Warning ** Output:Meter: invalid Key Name="HEATING:NATURALGAS" - not found.
   ** Warning ** Output:Meter: invalid Key Name="WATERSYSTEMS:NATURALGAS" - not found.
   ** Warning ** Output:Meter: invalid Key Name="PROPANE:FACILITY" - not found.
   ** Warning ** Output:Meter: invalid Key Name="HEATING:PROPANE" - not found.
   ************* Testing Individual Branch Integrity
   ************* All Branches passed integrity testing
   ************* Testing Individual Supply Air Path Integrity
   ************* All Supply Air Paths passed integrity testing
   ************* Testing Individual Return Air Path Integrity
   ************* All Return Air Paths passed integrity testing
   ************* No node connection errors were found.
   ************* Beginning Simulation
   ** Warning ** AirflowNetwork::Solver::validate_distribution: Heat pump water heater is simulated along with an AirflowNetwork but is not included in the AirflowNetwork.
   ** Warning ** CalcEquipmentFlowRates: "TOTAL HOT WATER LOAD" - Target water temperature is greater than the hot water temperature by (4.20 C)
   **   ~~~   **  Environment=EXTREME_WINTER, at Simulation time=01/08 07:00 - 07:15
   **   ~~~   ** ...target water temperature     = 53.33 C
   **   ~~~   ** ...hot water temperature        = 49.14 C
   **   ~~~   ** ...Target water temperature should be less than or equal to the hot water temperature. Verify temperature setpoints and schedules.
   ** Warning ** SimHVAC: Maximum iterations (20) exceeded for all HVAC loops, at EXTREME_WINTER, 01/14 22:30 - 22:45
   **   ~~~   ** The solution for one or more of the Air Loop HVAC systems did not appear to converge
   **   ~~~   ** Air System Named = CENTRAL SYSTEM did not converge for mass flow rate
   **   ~~~   ** Check values should be zero. Most Recent values listed first.
   **   ~~~   ** Demand-to-Supply interface mass flow rate check value iteration history trace: 8.094505E-002,8.094505E-002,8.094505E-002,8.094505E-002,8.094505E-002,8.094505E-002,8.094505E-002,8.094505E-002,8.094505E-002,8.094505E-002,
   **   ~~~   ** Supply-to-demand interface deck 1 mass flow rate check value iteration history trace: 8.094505E-002,8.094505E-002,8.094505E-002,8.094505E-002,8.094505E-002,8.094505E-002,8.094505E-002,8.094505E-002,8.094505E-002,8.094505E-002,
   **   ~~~   ** Air System Named = CENTRAL SYSTEM did not converge for energy
   **   ~~~   ** Check values should be zero. Most Recent values listed first.
   **   ~~~   ** Demand-to-Supply interface energy check value iteration history trace: 1498.861753,1498.861753,1498.861753,1498.861753,1498.861753,1498.861752,1498.861752,1498.861752,1498.861752,1498.861752,
   **   ~~~   ** Supply-to-demand interface deck 1 energy check value iteration history trace: 2409.958884,2409.958884,2409.958883,2409.958883,2409.958883,2409.958883,2409.958883,2409.958883,2409.958883,2409.958883,
   ** Warning ** SimHVAC: Maximum iterations (20) exceeded for all HVAC loops, at ANNUAL, 01/06 20:35 - 20:40
   **   ~~~   ** The solution for one or more of the Air Loop HVAC systems did not appear to converge
   **   ~~~   ** Air System Named = CENTRAL SYSTEM did not converge for mass flow rate
   **   ~~~   ** Check values should be zero. Most Recent values listed first.
   **   ~~~   ** Demand-to-Supply interface mass flow rate check value iteration history trace: 0.100789,0.100789,0.100789,0.100789,0.100789,0.100789,0.100789,0.100789,0.100789,0.100789,
   **   ~~~   ** Supply-to-demand interface deck 1 mass flow rate check value iteration history trace: 0.100789,0.100789,0.100789,0.100789,0.100789,0.100789,0.100789,0.100789,0.100789,0.100789,
   **   ~~~   ** Air System Named = CENTRAL SYSTEM did not converge for energy
   **   ~~~   ** Check values should be zero. Most Recent values listed first.
   **   ~~~   ** Demand-to-Supply interface energy check value iteration history trace: 1990.999937,1990.999936,1990.999936,1990.999936,1990.999936,1990.999936,1990.999936,1990.999936,1990.999936,1990.999935,
   **   ~~~   ** Supply-to-demand interface deck 1 energy check value iteration history trace: 3036.906739,3036.906739,3036.906739,3036.906739,3036.906739,3036.906738,3036.906738,3036.906738,3036.906738,3036.906738,
   ** Warning ** SimHVAC: Maximum iterations (20) exceeded for all HVAC loops, at ANNUAL, 01/12 22:00 - 22:15
   **   ~~~   ** The solution for one or more of the Air Loop HVAC systems did not appear to converge
   **   ~~~   ** Air System Named = CENTRAL SYSTEM did not converge for mass flow rate
   **   ~~~   ** Check values should be zero. Most Recent values listed first.
   **   ~~~   ** Demand-to-Supply interface mass flow rate check value iteration history trace: 0.100907,0.100907,0.100907,0.100907,0.100907,0.100907,0.100907,0.100907,0.100907,0.100907,
   **   ~~~   ** Supply-to-demand interface deck 1 mass flow rate check value iteration history trace: 0.100907,0.100907,0.100907,0.100907,0.100907,0.100907,0.100907,0.100907,0.100907,0.100907,
   **   ~~~   ** Air System Named = CENTRAL SYSTEM did not converge for energy
   **   ~~~   ** Check values should be zero. Most Recent values listed first.
   **   ~~~   ** Demand-to-Supply interface energy check value iteration history trace: 1998.394789,1998.394788,1998.394788,1998.394788,1998.394788,1998.394788,1998.394788,1998.394788,1998.394787,1998.394787,
   **   ~~~   ** Supply-to-demand interface deck 1 energy check value iteration history trace: 2980.693412,2980.693412,2980.693411,2980.693411,2980.693411,2980.693411,2980.693411,2980.693410,2980.693410,2980.693410,
   ** Warning ** SimHVAC: Maximum iterations (20) exceeded for all HVAC loops, at ANNUAL, 01/16 10:03 - 10:05
   **   ~~~   ** The solution for one or more of the Air Loop HVAC systems did not appear to converge
   **   ~~~   ** Air System Named = CENTRAL SYSTEM did not converge for mass flow rate
   **   ~~~   ** Check values should be zero. Most Recent values listed first.
   **   ~~~   ** Demand-to-Supply interface mass flow rate check value iteration history trace: 9.958087E-002,9.958087E-002,9.958087E-002,9.958087E-002,9.958087E-002,9.958087E-002,9.958087E-002,9.958087E-002,9.958087E-002,9.958087E-002,
   **   ~~~   ** Supply-to-demand interface deck 1 mass flow rate check value iteration history trace: 9.958087E-002,9.958087E-002,9.958087E-002,9.958087E-002,9.958087E-002,9.958087E-002,9.958087E-002,9.958087E-002,9.958087E-002,9.958087E-002,
   **   ~~~   ** Air System Named = CENTRAL SYSTEM did not converge for energy
   **   ~~~   ** Check values should be zero. Most Recent values listed first.
   **   ~~~   ** Demand-to-Supply interface energy check value iteration history trace: 1973.454908,1973.454908,1973.454908,1973.454908,1973.454907,1973.454907,1973.454907,1973.454907,1973.454907,1973.454907,
   **   ~~~   ** Supply-to-demand interface deck 1 energy check value iteration history trace: 3080.844386,3080.844386,3080.844386,3080.844385,3080.844385,3080.844385,3080.844385,3080.844385,3080.844385,3080.844384,
   ** Warning ** SimHVAC: Maximum iterations (20) exceeded for all HVAC loops, at ANNUAL, 01/19 09:04 - 09:08
   **   ~~~   ** The solution for one or more of the Air Loop HVAC systems did not appear to converge
   **   ~~~   ** Air System Named = CENTRAL SYSTEM did not converge for mass flow rate
   **   ~~~   ** Check values should be zero. Most Recent values listed first.
   **   ~~~   ** Demand-to-Supply interface mass flow rate check value iteration history trace: 7.409803E-002,7.409803E-002,7.409803E-002,7.409803E-002,7.409803E-002,7.409803E-002,7.409803E-002,7.409803E-002,7.409803E-002,7.409803E-002,
   **   ~~~   ** Supply-to-demand interface deck 1 mass flow rate check value iteration history trace: 7.409803E-002,7.409803E-002,7.409803E-002,7.409803E-002,7.409803E-002,7.409803E-002,7.409803E-002,7.409803E-002,7.409803E-002,7.409803E-002,
   **   ~~~   ** Air System Named = CENTRAL SYSTEM did not converge for energy
   **   ~~~   ** Check values should be zero. Most Recent values listed first.
   **   ~~~   ** Demand-to-Supply interface energy check value iteration history trace: 1468.383226,1468.383226,1468.383226,1468.383226,1468.383226,1468.383226,1468.383226,1468.383226,1468.383226,1468.383226,
   **   ~~~   ** Supply-to-demand interface deck 1 energy check value iteration history trace: 2588.370581,2588.370581,2588.370581,2588.370580,2588.370580,2588.370580,2588.370580,2588.370580,2588.370580,2588.370580,
   ** Warning ** SimHVAC: Maximum iterations (20) exceeded for all HVAC loops, at ANNUAL, 01/23 11:55 - 11:57
   **   ~~~   ** The solution for one or more of the Air Loop HVAC systems did not appear to converge
   **   ~~~   ** Air System Named = CENTRAL SYSTEM did not converge for mass flow rate
   **   ~~~   ** Check values should be zero. Most Recent values listed first.
   **   ~~~   ** Demand-to-Supply interface mass flow rate check value iteration history trace: 7.660102E-002,7.660102E-002,7.660102E-002,7.660102E-002,7.660102E-002,7.660102E-002,7.660102E-002,7.660102E-002,7.660102E-002,7.660102E-002,
   **   ~~~   ** Supply-to-demand interface deck 1 mass flow rate check value iteration history trace: 7.660102E-002,7.660102E-002,7.660102E-002,7.660102E-002,7.660102E-002,7.660102E-002,7.660102E-002,7.660102E-002,7.660102E-002,7.660102E-002,
   **   ~~~   ** Air System Named = CENTRAL SYSTEM did not converge for energy
   **   ~~~   ** Check values should be zero. Most Recent values listed first.
   **   ~~~   ** Demand-to-Supply interface energy check value iteration history trace: 1514.584651,1514.584651,1514.584651,1514.584651,1514.584651,1514.584651,1514.584651,1514.584651,1514.584651,1514.584651,
   **   ~~~   ** Supply-to-demand interface deck 1 energy check value iteration history trace: 2416.796705,2416.796705,2416.796705,2416.796705,2416.796704,2416.796704,2416.796704,2416.796704,2416.796704,2416.796704,
   ** Warning ** SimHVAC: Maximum iterations (20) exceeded for all HVAC loops, at ANNUAL, 01/26 09:47 - 09:49
   **   ~~~   ** The solution for one or more of the Air Loop HVAC systems did not appear to converge
   **   ~~~   ** Air System Named = CENTRAL SYSTEM did not converge for mass flow rate
   **   ~~~   ** Check values should be zero. Most Recent values listed first.
   **   ~~~   ** Demand-to-Supply interface mass flow rate check value iteration history trace: 9.526389E-002,9.526389E-002,9.526389E-002,9.526389E-002,9.526389E-002,9.526389E-002,9.526389E-002,9.526389E-002,9.526389E-002,9.526389E-002,
   **   ~~~   ** Supply-to-demand interface deck 1 mass flow rate check value iteration history trace: 9.526389E-002,9.526389E-002,9.526389E-002,9.526389E-002,9.526389E-002,9.526389E-002,9.526389E-002,9.526389E-002,9.526389E-002,9.526389E-002,
   **   ~~~   ** Air System Named = CENTRAL SYSTEM did not converge for energy
   **   ~~~   ** Check values should be zero. Most Recent values listed first.
   **   ~~~   ** Demand-to-Supply interface energy check value iteration history trace: 1887.679498,1887.679498,1887.679498,1887.679498,1887.679498,1887.679498,1887.679498,1887.679498,1887.679498,1887.679497,
   **   ~~~   ** Supply-to-demand interface deck 1 energy check value iteration history trace: 2986.662108,2986.662108,2986.662108,2986.662108,2986.662107,2986.662107,2986.662107,2986.662107,2986.662107,2986.662106,
   ** Warning ** SimHVAC: Maximum iterations (20) exceeded for all HVAC loops, at ANNUAL, 02/07 12:15 - 12:30
   **   ~~~   ** The solution for one or more of the Air Loop HVAC systems did not appear to converge
   **   ~~~   ** Air System Named = CENTRAL SYSTEM did not converge for mass flow rate
   **   ~~~   ** Check values should be zero. Most Recent values listed first.
   **   ~~~   ** Demand-to-Supply interface mass flow rate check value iteration history trace: 5.232005E-002,5.232005E-002,5.232005E-002,5.232005E-002,5.232005E-002,5.232005E-002,5.232005E-002,5.232005E-002,5.232005E-002,5.232005E-002,
   **   ~~~   ** Supply-to-demand interface deck 1 mass flow rate check value iteration history trace: 5.232005E-002,5.232005E-002,5.232005E-002,5.232005E-002,5.232005E-002,5.232005E-002,5.232005E-002,5.232005E-002,5.232005E-002,5.232005E-002,
   **   ~~~   ** Air System Named = CENTRAL SYSTEM did not converge for energy
   **   ~~~   ** Check values should be zero. Most Recent values listed first.
   **   ~~~   ** Demand-to-Supply interface energy check value iteration history trace: 1026.905965,1026.905965,1026.905965,1026.905965,1026.905965,1026.905965,1026.905965,1026.905965,1026.905965,1026.905965,
   **   ~~~   ** Supply-to-demand interface deck 1 energy check value iteration history trace: 1893.998795,1893.998794,1893.998794,1893.998794,1893.998794,1893.998794,1893.998794,1893.998794,1893.998794,1893.998794,
   ** Warning ** SimHVAC: Maximum iterations (20) exceeded for all HVAC loops, at ANNUAL, 02/11 09:30 - 09:45
   **   ~~~   ** The solution for one or more of the Air Loop HVAC systems did not appear to converge
   **   ~~~   ** Air System Named = CENTRAL SYSTEM did not converge for mass flow rate
   **   ~~~   ** Check values should be zero. Most Recent values listed first.
   **   ~~~   ** Demand-to-Supply interface mass flow rate check value iteration history trace: 9.366190E-002,9.366190E-002,9.366190E-002,9.366190E-002,9.366190E-002,9.366190E-002,9.366190E-002,9.366190E-002,9.366190E-002,9.366190E-002,
   **   ~~~   ** Supply-to-demand interface deck 1 mass flow rate check value iteration history trace: 9.366190E-002,9.366190E-002,9.366190E-002,9.366190E-002,9.366190E-002,9.366190E-002,9.366190E-002,9.366190E-002,9.366190E-002,9.366190E-002,
   **   ~~~   ** Air System Named = CENTRAL SYSTEM did not converge for energy
   **   ~~~   ** Check values should be zero. Most Recent values listed first.
   **   ~~~   ** Demand-to-Supply interface energy check value iteration history trace: 1856.057930,1856.057930,1856.057930,1856.057929,1856.057929,1856.057929,1856.057929,1856.057929,1856.057929,1856.057929,
   **   ~~~   ** Supply-to-demand interface deck 1 energy check value iteration history trace: 2947.626321,2947.626321,2947.626321,2947.626321,2947.626321,2947.626320,2947.626320,2947.626320,2947.626320,2947.626320,
   ** Warning ** SimHVAC: Maximum iterations (20) exceeded for all HVAC loops, at ANNUAL, 02/14 10:56 - 10:58
   **   ~~~   ** The solution for one or more of the Air Loop HVAC systems did not appear to converge
   **   ~~~   ** Air System Named = CENTRAL SYSTEM did not converge for mass flow rate
   **   ~~~   ** Check values should be zero. Most Recent values listed first.
   **   ~~~   ** Demand-to-Supply interface mass flow rate check value iteration history trace: 7.017561E-002,7.017561E-002,7.017561E-002,7.017561E-002,7.017561E-002,7.017561E-002,7.017561E-002,7.017561E-002,7.017561E-002,7.017561E-002,
   **   ~~~   ** Supply-to-demand interface deck 1 mass flow rate check value iteration history trace: 7.017561E-002,7.017561E-002,7.017561E-002,7.017561E-002,7.017561E-002,7.017561E-002,7.017561E-002,7.017561E-002,7.017561E-002,7.017561E-002,
   **   ~~~   ** Air System Named = CENTRAL SYSTEM did not converge for energy
   **   ~~~   ** Check values should be zero. Most Recent values listed first.
   **   ~~~   ** Demand-to-Supply interface energy check value iteration history trace: 1382.671154,1382.671154,1382.671154,1382.671153,1382.671153,1382.671153,1382.671153,1382.671153,1382.671153,1382.671153,
   **   ~~~   ** Supply-to-demand interface deck 1 energy check value iteration history trace: 2497.439838,2497.439838,2497.439837,2497.439837,2497.439837,2497.439837,2497.439837,2497.439837,2497.439837,2497.439837,
   ** Warning ** SimHVAC: Maximum iterations (20) exceeded for all HVAC loops, at ANNUAL, 02/23 11:15 - 11:30
   **   ~~~   ** The solution for one or more of the Air Loop HVAC systems did not appear to converge
   **   ~~~   ** Air System Named = CENTRAL SYSTEM did not converge for mass flow rate
   **   ~~~   ** Check values should be zero. Most Recent values listed first.
   **   ~~~   ** Demand-to-Supply interface mass flow rate check value iteration history trace: 8.662106E-002,8.662106E-002,8.662106E-002,8.662106E-002,8.662106E-002,8.662106E-002,8.662106E-002,8.662106E-002,8.662106E-002,8.662106E-002,
   **   ~~~   ** Supply-to-demand interface deck 1 mass flow rate check value iteration history trace: 8.662106E-002,8.662106E-002,8.662106E-002,8.662106E-002,8.662106E-002,8.662106E-002,8.662106E-002,8.662106E-002,8.662106E-002,8.662106E-002,
   **   ~~~   ** Air System Named = CENTRAL SYSTEM did not converge for energy
   **   ~~~   ** Check values should be zero. Most Recent values listed first.
   **   ~~~   ** Demand-to-Supply interface energy check value iteration history trace: 1716.605506,1716.605506,1716.605506,1716.605506,1716.605506,1716.605506,1716.605506,1716.605505,1716.605505,1716.605505,
   **   ~~~   ** Supply-to-demand interface deck 1 energy check value iteration history trace: 2707.805783,2707.805782,2707.805782,2707.805782,2707.805782,2707.805782,2707.805781,2707.805781,2707.805781,2707.805781,
   ** Warning ** SimHVAC: Maximum iterations (20) exceeded for all HVAC loops, at ANNUAL, 02/23 12:30 - 12:32
   **   ~~~   ** The solution for one or more of the Air Loop HVAC systems did not appear to converge
   **   ~~~   ** Air System Named = CENTRAL SYSTEM did not converge for mass flow rate
   **   ~~~   ** Check values should be zero. Most Recent values listed first.
   **   ~~~   ** Demand-to-Supply interface mass flow rate check value iteration history trace: 7.311929E-002,7.311929E-002,7.311929E-002,7.311929E-002,7.311929E-002,7.311929E-002,7.311929E-002,7.311929E-002,7.311929E-002,7.311929E-002,
   **   ~~~   ** Supply-to-demand interface deck 1 mass flow rate check value iteration history trace: 7.311929E-002,7.311929E-002,7.311929E-002,7.311929E-002,7.311929E-002,7.311929E-002,7.311929E-002,7.311929E-002,7.311929E-002,7.311929E-002,
   **   ~~~   ** Air System Named = CENTRAL SYSTEM did not converge for energy
   **   ~~~   ** Check values should be zero. Most Recent values listed first.
   **   ~~~   ** Demand-to-Supply interface energy check value iteration history trace: 1446.912152,1446.912152,1446.912152,1446.912152,1446.912152,1446.912152,1446.912152,1446.912152,1446.912152,1446.912152,
   **   ~~~   ** Supply-to-demand interface deck 1 energy check value iteration history trace: 2331.434882,2331.434882,2331.434882,2331.434882,2331.434882,2331.434882,2331.434881,2331.434881,2331.434881,2331.434881,
   ** Warning ** SimHVAC: Maximum iterations (20) exceeded for all HVAC loops, at ANNUAL, 02/24 09:45 - 10:00
   **   ~~~   ** The solution for one or more of the Air Loop HVAC systems did not appear to converge
   **   ~~~   ** Air System Named = CENTRAL SYSTEM did not converge for mass flow rate
   **   ~~~   ** Check values should be zero. Most Recent values listed first.
   **   ~~~   ** Demand-to-Supply interface mass flow rate check value iteration history trace: 7.378821E-002,7.378821E-002,7.378821E-002,7.378821E-002,7.378821E-002,7.378821E-002,7.378821E-002,7.378821E-002,7.378821E-002,7.378821E-002,
   **   ~~~   ** Supply-to-demand interface deck 1 mass flow rate check value iteration history trace: 7.378821E-002,7.378821E-002,7.378821E-002,7.378821E-002,7.378821E-002,7.378821E-002,7.378821E-002,7.378821E-002,7.378821E-002,7.378821E-002,
   **   ~~~   ** Air System Named = CENTRAL SYSTEM did not converge for energy
   **   ~~~   ** Check values should be zero. Most Recent values listed first.
   **   ~~~   ** Demand-to-Supply interface energy check value iteration history trace: 1462.268461,1462.268461,1462.268460,1462.268460,1462.268460,1462.268460,1462.268460,1462.268460,1462.268460,1462.268460,
   **   ~~~   ** Supply-to-demand interface deck 1 energy check value iteration history trace: 2604.606526,2604.606526,2604.606526,2604.606526,2604.606526,2604.606526,2604.606526,2604.606526,2604.606525,2604.606525,
   ** Warning ** SimHVAC: Maximum iterations (20) exceeded for all HVAC loops, at ANNUAL, 03/05 09:30 - 09:45
   **   ~~~   ** The solution for one or more of the Air Loop HVAC systems did not appear to converge
   **   ~~~   ** Air System Named = CENTRAL SYSTEM did not converge for mass flow rate
   **   ~~~   ** Check values should be zero. Most Recent values listed first.
   **   ~~~   ** Demand-to-Supply interface mass flow rate check value iteration history trace: 4.585103E-002,4.585103E-002,4.585103E-002,4.585103E-002,4.585103E-002,4.585103E-002,4.585103E-002,4.585103E-002,4.585103E-002,4.585103E-002,
   **   ~~~   ** Supply-to-demand interface deck 1 mass flow rate check value iteration history trace: 4.585103E-002,4.585103E-002,4.585103E-002,4.585103E-002,4.585103E-002,4.585103E-002,4.585103E-002,4.585103E-002,4.585103E-002,4.585103E-002,
   **   ~~~   ** Air System Named = CENTRAL SYSTEM did not converge for energy
   **   ~~~   ** Check values should be zero. Most Recent values listed first.
   **   ~~~   ** Demand-to-Supply interface energy check value iteration history trace: 891.893001,891.893001,891.893001,891.893001,891.893000,891.893000,891.893000,891.893000,891.893000,891.893000,
   **   ~~~   ** Supply-to-demand interface deck 1 energy check value iteration history trace: 1736.593151,1736.593151,1736.593151,1736.593151,1736.593151,1736.593151,1736.593151,1736.593151,1736.593151,1736.593151,
   ************* Simulation Error Summary *************
   ** Warning ** The following Report Variables were requested but not generated -- check.rdd file
   **   ~~~   ** Either the IDF did not contain these elements, the variable name is misspelled,
   **   ~~~   ** or the requested variable is an advanced output which requires Output : Diagnostics, DisplayAdvancedReportVariables;
   ************* Key=*, VarName=BASEBOARD TOTAL HEATING ENERGY, Frequency=
   ************* Key=*, VarName=WATER HEATER NATURALGAS ENERGY, Frequency=
   ************* Key=*, VarName=COOLING COIL TOTAL HEATING ENERGY, Frequency=
   ************* There are 34 unused schedules in input.
   ************* There are 388 unused week schedules in input.
   ************* There are 396 unused day schedules in input.
   ************* Use Output:Diagnostics,DisplayUnusedSchedules; to see them.
   *************
   ************* ===== Recurring Error Summary =====
   ************* The following recurring error messages occurred.
   *************
   *************  ** Warning ** "TOTAL HOT WATER LOAD" - Target water temperature should be less than or equal to the hot water temperature error continues...
   *************  **   ~~~   **   This error occurred 187029 total times;
   *************  **   ~~~   **   during Warmup 0 times;
   *************  **   ~~~   **   during Sizing 0 times.
   *************  **   ~~~   **   Max=12.570626  Min=9.649478E-005
   *************
   *************  ** Warning ** SimHVAC: Exceeding Maximum iterations for all HVAC loops, during ANNUAL continues
   *************  **   ~~~   **   This error occurred 24 total times;
   *************  **   ~~~   **   during Warmup 0 times;
   *************  **   ~~~   **   during Sizing 0 times.
   *************
   *************
   ************* ===== Final Error Summary =====
   ************* The following error categories occurred.  Consider correcting or noting.
   ************* Nominally Unused Constructions
   ************* ..The nominally unused constructions warning is provided to alert you to potential conditions that can cause
   ************* ..extra time during simulation. Each construction is calculated by the algorithm indicated in the HeatBalanceAlgorithm
   ************* ..object. You may remove the constructions indicated (when you use the DisplayExtraWarnings option).
   *************
   ************* EnergyPlus Warmup Error Summary. During Warmup: 1 Warning; 0 Severe Errors.
   ************* EnergyPlus Sizing Error Summary. During Sizing: 4 Warning; 0 Severe Errors.
   ************* EnergyPlus Completed Successfully-- 187084 Warning; 0 Severe Errors; Elapsed Time=00hr 01min 46.89sec
