Program Version,EnergyPlus, Version 22.2.0-c249759bad, YMD=2023.09.01 14:50,
   ************* Beginning Zone Sizing Calculations
   ** Warning ** ProcessScheduleInput: Schedule:Constant="ALWAYS ON DISCRETE", Schedule Type Limits Name="ONOFF" not found -- will not be validated
   ** Warning ** Foundation:Kiva="KIVA FOUNDATION", no Interior Horizontal Insulation Material Name defined
   **   ~~~   ** Interior Horizontal Insulation Depth will not be used.
   ** Warning ** CheckUsedConstructions: There are 15 nominally unused constructions in input.
   **   ~~~   ** Each Unused construction is shown.
   ************* Construction=INTERIOR FLOOR
   ************* Construction=INTERIOR WINDOW
   ************* Construction=EXTERIOR DOOR
   ************* Construction=INTERIOR DOOR
   ************* Construction=GABLE CONSTRUCTION
   ************* Construction=CRAWL_FLOOR
   ************* Construction=INSULATED PIPE
   ************* Construction=PLAIN PIPE
   ************* Construction=TDD PIPE
   ************* Construction=TDD DOME
   ************* Construction=TDD DIFFUSER
   ************* Construction=CRAWL WALL
   ************* Construction=CEILING-FLOOR-LAYER
   ************* Construction=SLAB CONSTRUCTION W FULL R10 INSULATION
   ************* Construction=SLAB CONSTRUCTION W FULL R5 INSULATION
   ** Warning ** GetDXCoils: Coil:Heating:DX:SingleSpeed="DX_HEATING_COIL" curve values
   **   ~~~   ** ... Defrost Energy Input Ratio Function of Temperature Curve Name = DEFROSTEIR output is not equal to 1.0 (+ or - 10%) at rated conditions.
   **   ~~~   ** ... Curve output at rated conditions = 0.152
   ************* Beginning System Sizing Calculations
   ************* Beginning Plant Sizing Calculations
   ** Warning ** Coil:WaterHeating:AirToWaterHeatPump:Wrapped "HEAT PUMP WATER HEATER EVAPORATOR": Rated air volume flow rate per watt of rated total water heating capacity is out of range
   **   ~~~   ** Min Rated Vol Flow Per Watt=[4.027E-005], Rated Vol Flow Per Watt=[1.386E-004], Max Rated Vol Flow Per Watt=[8.056E-005]. See Input-Output Reference Manual for valid range.
   ** Warning ** Water heater = WATER HEATER TANK:  Recovery Efficiency and Energy Factor could not be calculated during the test for standard ratings
   **   ~~~   ** Setpoint was never recovered and/or heater never turned on
   ** Warning ** Check input. Pump nominal power or motor efficiency is set to 0, for pump=MAINS PRESSURE
   ** Warning ** AirflowNetwork::Solver::validate_distribution: Heat pump water heater is simulated along with an AirflowNetwork but is not included in the AirflowNetwork.
   ** Warning ** Output:Meter: invalid Key Name="ELECTRIC_RANGE:INTERIOREQUIPMENT:ELECTRICITY" - not found.
   ** Warning ** Output:Meter: invalid Key Name="ELECTRIC_DRYER:INTERIOREQUIPMENT:ELECTRICITY" - not found.
   ** Warning ** Output:Meter: invalid Key Name="HEATRECOVERY:ELECTRICITY" - not found.
   ** Warning ** Output:Meter: invalid Key Name="HEATING:NATURALGAS" - not found.
   ** Warning ** Output:Meter: invalid Key Name="WATERSYSTEMS:NATURALGAS" - not found.
   ** Warning ** Output:Meter: invalid Key Name="PROPANE:FACILITY" - not found.
   ** Warning ** Output:Meter: invalid Key Name="HEATING:PROPANE" - not found.
   ************* Testing Individual Branch Integrity
   ************* All Branches passed integrity testing
   ************* Testing Individual Supply Air Path Integrity
   ************* All Supply Air Paths passed integrity testing
   ************* Testing Individual Return Air Path Integrity
   ************* All Return Air Paths passed integrity testing
   ************* No node connection errors were found.
   ************* Beginning Simulation
   ** Warning ** CalcEquipmentFlowRates: "TOTAL HOT WATER LOAD" - Target water temperature is greater than the hot water temperature by (1.64 C)
   **   ~~~   **  Environment=EXTREME_WINTER, at Simulation time=01/20 06:00 - 06:15
   **   ~~~   ** ...target water temperature     = 53.33 C
   **   ~~~   ** ...hot water temperature        = 51.70 C
   **   ~~~   ** ...Target water temperature should be less than or equal to the hot water temperature. Verify temperature setpoints and schedules.
   ** Warning ** SimHVAC: Maximum iterations (20) exceeded for all HVAC loops, at ANNUAL, 03/25 07:53 - 08:00
   **   ~~~   ** The solution for one or more of the Air Loop HVAC systems did not appear to converge
   **   ~~~   ** Air System Named = CENTRAL SYSTEM did not converge for mass flow rate
   **   ~~~   ** Check values should be zero. Most Recent values listed first.
   **   ~~~   ** Demand-to-Supply interface mass flow rate check value iteration history trace: 6.811646E-002,6.811646E-002,6.811646E-002,6.811646E-002,6.811646E-002,6.811646E-002,6.811646E-002,6.811646E-002,6.811646E-002,6.811646E-002,
   **   ~~~   ** Supply-to-demand interface deck 1 mass flow rate check value iteration history trace: 6.811646E-002,6.811646E-002,6.811646E-002,6.811646E-002,6.811646E-002,6.811646E-002,6.811646E-002,6.811646E-002,6.811646E-002,6.811646E-002,
   **   ~~~   ** Air System Named = CENTRAL SYSTEM did not converge for energy
   **   ~~~   ** Check values should be zero. Most Recent values listed first.
   **   ~~~   ** Demand-to-Supply interface energy check value iteration history trace: 1349.671674,1349.671674,1349.671674,1349.671674,1349.671674,1349.671674,1349.671674,1349.671674,1349.671674,1349.671674,
   **   ~~~   ** Supply-to-demand interface deck 1 energy check value iteration history trace: 2414.334248,2414.334248,2414.334248,2414.334248,2414.334248,2414.334248,2414.334248,2414.334248,2414.334248,2414.334247,
   ** Warning ** SimHVAC: Maximum iterations (20) exceeded for all HVAC loops, at ANNUAL, 04/15 18:30 - 18:45
   **   ~~~   ** The solution for one or more of the Air Loop HVAC systems did not appear to converge
   **   ~~~   ** Air System Named = CENTRAL SYSTEM did not converge for mass flow rate
   **   ~~~   ** Check values should be zero. Most Recent values listed first.
   **   ~~~   ** Demand-to-Supply interface mass flow rate check value iteration history trace: 8.385091E-002,8.385091E-002,8.385091E-002,8.385091E-002,8.385091E-002,8.385091E-002,8.385091E-002,8.385091E-002,8.385091E-002,8.385091E-002,
   **   ~~~   ** Supply-to-demand interface deck 1 mass flow rate check value iteration history trace: 8.385091E-002,8.385091E-002,8.385091E-002,8.385091E-002,8.385091E-002,8.385091E-002,8.385091E-002,8.385091E-002,8.385091E-002,8.385091E-002,
   **   ~~~   ** Air System Named = CENTRAL SYSTEM did not converge for energy
   **   ~~~   ** Check values should be zero. Most Recent values listed first.
   **   ~~~   ** Demand-to-Supply interface energy check value iteration history trace: 1658.993984,1658.993983,1658.993983,1658.993983,1658.993983,1658.993983,1658.993983,1658.993983,1658.993983,1658.993983,
   **   ~~~   ** Supply-to-demand interface deck 1 energy check value iteration history trace: 2677.787380,2677.787380,2677.787380,2677.787379,2677.787379,2677.787379,2677.787379,2677.787379,2677.787379,2677.787378,
   ** Warning ** SimHVAC: Maximum iterations (20) exceeded for all HVAC loops, at ANNUAL, 04/16 21:00 - 21:15
   **   ~~~   ** The solution for one or more of the Air Loop HVAC systems did not appear to converge
   **   ~~~   ** Air System Named = CENTRAL SYSTEM did not converge for mass flow rate
   **   ~~~   ** Check values should be zero. Most Recent values listed first.
   **   ~~~   ** Demand-to-Supply interface mass flow rate check value iteration history trace: 6.250869E-002,6.250869E-002,6.250869E-002,6.250869E-002,6.250869E-002,6.250869E-002,6.250869E-002,6.250869E-002,6.250869E-002,6.250869E-002,
   **   ~~~   ** Supply-to-demand interface deck 1 mass flow rate check value iteration history trace: 6.250869E-002,6.250869E-002,6.250869E-002,6.250869E-002,6.250869E-002,6.250869E-002,6.250869E-002,6.250869E-002,6.250869E-002,6.250869E-002,
   **   ~~~   ** Air System Named = CENTRAL SYSTEM did not converge for energy
   **   ~~~   ** Check values should be zero. Most Recent values listed first.
   **   ~~~   ** Demand-to-Supply interface energy check value iteration history trace: 1222.041099,1222.041099,1222.041099,1222.041099,1222.041099,1222.041098,1222.041098,1222.041098,1222.041098,1222.041098,
   **   ~~~   ** Supply-to-demand interface deck 1 energy check value iteration history trace: 2232.925736,2232.925736,2232.925736,2232.925735,2232.925735,2232.925735,2232.925734,2232.925734,2232.925734,2232.925733,
   **   ~~~   ** Node named ZONE INLET NODE shows oscillating temperatures across iterations with a repeated value of 35.549646
   **   ~~~   ** Node named ZONE INLET NODE temperature [C] iteration history trace (most recent first): 35.549646,35.549646,35.549645,35.549645,35.549645,35.549645,35.549645,35.549644,35.549644,35.549644,
   ** Warning ** SimHVAC: Maximum iterations (20) exceeded for all HVAC loops, at ANNUAL, 04/30 20:30 - 20:45
   **   ~~~   ** The solution for one or more of the Air Loop HVAC systems did not appear to converge
   **   ~~~   ** Air System Named = CENTRAL SYSTEM did not converge for mass flow rate
   **   ~~~   ** Check values should be zero. Most Recent values listed first.
   **   ~~~   ** Demand-to-Supply interface mass flow rate check value iteration history trace: 7.283528E-002,7.283528E-002,7.283528E-002,7.283528E-002,7.283528E-002,7.283528E-002,7.283528E-002,7.283528E-002,7.283528E-002,7.283528E-002,
   **   ~~~   ** Supply-to-demand interface deck 1 mass flow rate check value iteration history trace: 7.283528E-002,7.283528E-002,7.283528E-002,7.283528E-002,7.283528E-002,7.283528E-002,7.283528E-002,7.283528E-002,7.283528E-002,7.283528E-002,
   **   ~~~   ** Air System Named = CENTRAL SYSTEM did not converge for energy
   **   ~~~   ** Check values should be zero. Most Recent values listed first.
   **   ~~~   ** Demand-to-Supply interface energy check value iteration history trace: 1439.971899,1439.971899,1439.971899,1439.971899,1439.971899,1439.971898,1439.971898,1439.971898,1439.971898,1439.971898,
   **   ~~~   ** Supply-to-demand interface deck 1 energy check value iteration history trace: 2608.126573,2608.126572,2608.126572,2608.126572,2608.126572,2608.126572,2608.126572,2608.126572,2608.126572,2608.126571,
   ** Warning ** SimHVAC: Maximum iterations (20) exceeded for all HVAC loops, at ANNUAL, 10/07 19:45 - 20:00
   **   ~~~   ** The solution for one or more of the Air Loop HVAC systems did not appear to converge
   **   ~~~   ** Air System Named = CENTRAL SYSTEM did not converge for mass flow rate
   **   ~~~   ** Check values should be zero. Most Recent values listed first.
   **   ~~~   ** Demand-to-Supply interface mass flow rate check value iteration history trace: 0.113849,0.113849,0.113849,0.113849,0.113849,0.113849,0.113849,0.113849,0.113849,0.113849,
   **   ~~~   ** Supply-to-demand interface deck 1 mass flow rate check value iteration history trace: 0.113849,0.113849,0.113849,0.113849,0.113849,0.113849,0.113849,0.113849,0.113849,0.113849,
   **   ~~~   ** Air System Named = CENTRAL SYSTEM did not converge for energy
   **   ~~~   ** Check values should be zero. Most Recent values listed first.
   **   ~~~   ** Demand-to-Supply interface energy check value iteration history trace: 2729.014276,2729.014276,2729.014276,2729.014277,2729.014277,2729.014278,2729.014278,2729.014278,2729.014279,2729.014279,
   **   ~~~   ** Supply-to-demand interface deck 1 energy check value iteration history trace: 1085.266027,1085.266027,1085.266027,1085.266027,1085.266027,1085.266028,1085.266028,1085.266028,1085.266028,1085.266028,
   ** Warning ** SimHVAC: Maximum iterations (20) exceeded for all HVAC loops, at ANNUAL, 10/08 11:30 - 11:45
   **   ~~~   ** The solution for one or more of the Air Loop HVAC systems did not appear to converge
   **   ~~~   ** Air System Named = CENTRAL SYSTEM did not converge for mass flow rate
   **   ~~~   ** Check values should be zero. Most Recent values listed first.
   **   ~~~   ** Demand-to-Supply interface mass flow rate check value iteration history trace: 5.792636E-002,5.792636E-002,5.792636E-002,5.792636E-002,5.792636E-002,5.792636E-002,5.792636E-002,5.792636E-002,5.792636E-002,5.792636E-002,
   **   ~~~   ** Supply-to-demand interface deck 1 mass flow rate check value iteration history trace: 5.792636E-002,5.792636E-002,5.792636E-002,5.792636E-002,5.792636E-002,5.792636E-002,5.792636E-002,5.792636E-002,5.792636E-002,5.792636E-002,
   **   ~~~   ** Air System Named = CENTRAL SYSTEM did not converge for energy
   **   ~~~   ** Check values should be zero. Most Recent values listed first.
   **   ~~~   ** Demand-to-Supply interface energy check value iteration history trace: 1361.975110,1361.975110,1361.975111,1361.975111,1361.975111,1361.975111,1361.975111,1361.975111,1361.975111,1361.975111,
   **   ~~~   ** Supply-to-demand interface deck 1 energy check value iteration history trace: 496.395795,496.395795,496.395795,496.395795,496.395795,496.395795,496.395795,496.395795,496.395796,496.395796,
   ** Warning ** SimHVAC: Maximum iterations (20) exceeded for all HVAC loops, at ANNUAL, 10/12 17:30 - 17:45
   **   ~~~   ** The solution for one or more of the Air Loop HVAC systems did not appear to converge
   **   ~~~   ** Air System Named = CENTRAL SYSTEM did not converge for mass flow rate
   **   ~~~   ** Check values should be zero. Most Recent values listed first.
   **   ~~~   ** Demand-to-Supply interface mass flow rate check value iteration history trace: 9.576335E-002,9.576335E-002,9.576335E-002,9.576335E-002,9.576335E-002,9.576335E-002,9.576335E-002,9.576335E-002,9.576335E-002,9.576335E-002,
   **   ~~~   ** Supply-to-demand interface deck 1 mass flow rate check value iteration history trace: 9.576335E-002,9.576335E-002,9.576335E-002,9.576335E-002,9.576335E-002,9.576335E-002,9.576335E-002,9.576335E-002,9.576335E-002,9.576335E-002,
   **   ~~~   ** Air System Named = CENTRAL SYSTEM did not converge for energy
   **   ~~~   ** Check values should be zero. Most Recent values listed first.
   **   ~~~   ** Demand-to-Supply interface energy check value iteration history trace: 2281.403269,2281.403269,2281.403269,2281.403269,2281.403269,2281.403269,2281.403269,2281.403270,2281.403270,2281.403270,
   **   ~~~   ** Supply-to-demand interface deck 1 energy check value iteration history trace: 896.377198,896.377198,896.377198,896.377198,896.377198,896.377198,896.377198,896.377198,896.377198,896.377198,
   ** Warning ** SimHVAC: Maximum iterations (20) exceeded for all HVAC loops, at ANNUAL, 10/12 20:00 - 20:15
   **   ~~~   ** The solution for one or more of the Air Loop HVAC systems did not appear to converge
   **   ~~~   ** Air System Named = CENTRAL SYSTEM did not converge for mass flow rate
   **   ~~~   ** Check values should be zero. Most Recent values listed first.
   **   ~~~   ** Demand-to-Supply interface mass flow rate check value iteration history trace: 7.100101E-002,7.100101E-002,7.100101E-002,7.100101E-002,7.100101E-002,7.100101E-002,7.100101E-002,7.100101E-002,7.100101E-002,7.100101E-002,
   **   ~~~   ** Supply-to-demand interface deck 1 mass flow rate check value iteration history trace: 7.100101E-002,7.100101E-002,7.100101E-002,7.100101E-002,7.100101E-002,7.100101E-002,7.100101E-002,7.100101E-002,7.100101E-002,7.100101E-002,
   **   ~~~   ** Air System Named = CENTRAL SYSTEM did not converge for energy
   **   ~~~   ** Check values should be zero. Most Recent values listed first.
   **   ~~~   ** Demand-to-Supply interface energy check value iteration history trace: 1675.269280,1675.269281,1675.269281,1675.269281,1675.269281,1675.269281,1675.269281,1675.269281,1675.269281,1675.269281,
   **   ~~~   ** Supply-to-demand interface deck 1 energy check value iteration history trace: 694.848504,694.848504,694.848504,694.848504,694.848504,694.848504,694.848504,694.848504,694.848504,694.848504,
   ** Warning ** SimHVAC: Maximum iterations (20) exceeded for all HVAC loops, at ANNUAL, 10/13 15:23 - 15:30
   **   ~~~   ** The solution for one or more of the Air Loop HVAC systems did not appear to converge
   **   ~~~   ** Air System Named = CENTRAL SYSTEM did not converge for mass flow rate
   **   ~~~   ** Check values should be zero. Most Recent values listed first.
   **   ~~~   ** Demand-to-Supply interface mass flow rate check value iteration history trace: 0.112913,0.112913,0.112913,0.112913,0.112913,0.112913,0.112913,0.112913,0.112913,0.112913,
   **   ~~~   ** Supply-to-demand interface deck 1 mass flow rate check value iteration history trace: 0.112913,0.112913,0.112913,0.112913,0.112913,0.112913,0.112913,0.112913,0.112913,0.112913,
   **   ~~~   ** Air System Named = CENTRAL SYSTEM did not converge for energy
   **   ~~~   ** Check values should be zero. Most Recent values listed first.
   **   ~~~   ** Demand-to-Supply interface energy check value iteration history trace: 2654.099610,2654.099611,2654.099612,2654.099613,2654.099613,2654.099614,2654.099615,2654.099615,2654.099616,2654.099617,
   **   ~~~   ** Supply-to-demand interface deck 1 energy check value iteration history trace: 1417.419838,1417.419839,1417.419839,1417.419840,1417.419840,1417.419840,1417.419841,1417.419841,1417.419841,1417.419842,
   ** Warning ** SimHVAC: Maximum iterations (20) exceeded for all HVAC loops, at ANNUAL, 10/13 17:00 - 17:05
   **   ~~~   ** The solution for one or more of the Air Loop HVAC systems did not appear to converge
   **   ~~~   ** Air System Named = CENTRAL SYSTEM did not converge for mass flow rate
   **   ~~~   ** Check values should be zero. Most Recent values listed first.
   **   ~~~   ** Demand-to-Supply interface mass flow rate check value iteration history trace: 6.632863E-002,6.632863E-002,6.632863E-002,6.632863E-002,6.632863E-002,6.632863E-002,6.632863E-002,6.632863E-002,6.632863E-002,6.632863E-002,
   **   ~~~   ** Supply-to-demand interface deck 1 mass flow rate check value iteration history trace: 6.632863E-002,6.632863E-002,6.632863E-002,6.632863E-002,6.632863E-002,6.632863E-002,6.632863E-002,6.632863E-002,6.632863E-002,6.632863E-002,
   **   ~~~   ** Air System Named = CENTRAL SYSTEM did not converge for energy
   **   ~~~   ** Check values should be zero. Most Recent values listed first.
   **   ~~~   ** Demand-to-Supply interface energy check value iteration history trace: 1553.963740,1553.963741,1553.963741,1553.963741,1553.963741,1553.963741,1553.963741,1553.963741,1553.963741,1553.963742,
   **   ~~~   ** Supply-to-demand interface deck 1 energy check value iteration history trace: 840.614693,840.614693,840.614694,840.614694,840.614694,840.614694,840.614694,840.614694,840.614694,840.614694,
   ** Warning ** SimHVAC: Maximum iterations (20) exceeded for all HVAC loops, at ANNUAL, 10/15 08:30 - 08:38
   **   ~~~   ** The solution for one or more of the Air Loop HVAC systems did not appear to converge
   **   ~~~   ** Air System Named = CENTRAL SYSTEM did not converge for mass flow rate
   **   ~~~   ** Check values should be zero. Most Recent values listed first.
   **   ~~~   ** Demand-to-Supply interface mass flow rate check value iteration history trace: 5.025325E-002,5.025325E-002,5.025325E-002,5.025325E-002,5.025325E-002,5.025325E-002,5.025325E-002,5.025325E-002,5.025325E-002,5.025325E-002,
   **   ~~~   ** Supply-to-demand interface deck 1 mass flow rate check value iteration history trace: 5.025325E-002,5.025325E-002,5.025325E-002,5.025325E-002,5.025325E-002,5.025325E-002,5.025325E-002,5.025325E-002,5.025325E-002,5.025325E-002,
   **   ~~~   ** Air System Named = CENTRAL SYSTEM did not converge for energy
   **   ~~~   ** Check values should be zero. Most Recent values listed first.
   **   ~~~   ** Demand-to-Supply interface energy check value iteration history trace: 994.577716,994.577716,994.577716,994.577716,994.577716,994.577716,994.577716,994.577716,994.577716,994.577716,
   **   ~~~   ** Supply-to-demand interface deck 1 energy check value iteration history trace: 1865.241147,1865.241146,1865.241146,1865.241146,1865.241146,1865.241146,1865.241146,1865.241146,1865.241146,1865.241146,
   ** Warning ** SimHVAC: Maximum iterations (20) exceeded for all HVAC loops, at ANNUAL, 11/07 09:00 - 09:15
   **   ~~~   ** The solution for one or more of the Air Loop HVAC systems did not appear to converge
   **   ~~~   ** Air System Named = CENTRAL SYSTEM did not converge for mass flow rate
   **   ~~~   ** Check values should be zero. Most Recent values listed first.
   **   ~~~   ** Demand-to-Supply interface mass flow rate check value iteration history trace: 6.358539E-002,6.358539E-002,6.358539E-002,6.358539E-002,6.358539E-002,6.358539E-002,6.358539E-002,6.358539E-002,6.358539E-002,6.358539E-002,
   **   ~~~   ** Supply-to-demand interface deck 1 mass flow rate check value iteration history trace: 6.358539E-002,6.358539E-002,6.358539E-002,6.358539E-002,6.358539E-002,6.358539E-002,6.358539E-002,6.358539E-002,6.358539E-002,6.358539E-002,
   **   ~~~   ** Air System Named = CENTRAL SYSTEM did not converge for energy
   **   ~~~   ** Check values should be zero. Most Recent values listed first.
   **   ~~~   ** Demand-to-Supply interface energy check value iteration history trace: 1259.988588,1259.988588,1259.988588,1259.988588,1259.988588,1259.988588,1259.988588,1259.988588,1259.988588,1259.988588,
   **   ~~~   ** Supply-to-demand interface deck 1 energy check value iteration history trace: 2222.154197,2222.154197,2222.154197,2222.154197,2222.154197,2222.154197,2222.154196,2222.154196,2222.154196,2222.154196,
   ** Warning ** SimHVAC: Maximum iterations (20) exceeded for all HVAC loops, at ANNUAL, 11/19 20:15 - 20:30
   **   ~~~   ** The solution for one or more of the Air Loop HVAC systems did not appear to converge
   **   ~~~   ** Air System Named = CENTRAL SYSTEM did not converge for mass flow rate
   **   ~~~   ** Check values should be zero. Most Recent values listed first.
   **   ~~~   ** Demand-to-Supply interface mass flow rate check value iteration history trace: 7.798231E-002,7.798231E-002,7.798231E-002,7.798231E-002,7.798231E-002,7.798231E-002,7.798231E-002,7.798231E-002,7.798231E-002,7.798231E-002,
   **   ~~~   ** Supply-to-demand interface deck 1 mass flow rate check value iteration history trace: 7.798231E-002,7.798231E-002,7.798231E-002,7.798231E-002,7.798231E-002,7.798231E-002,7.798231E-002,7.798231E-002,7.798231E-002,7.798231E-002,
   **   ~~~   ** Air System Named = CENTRAL SYSTEM did not converge for energy
   **   ~~~   ** Check values should be zero. Most Recent values listed first.
   **   ~~~   ** Demand-to-Supply interface energy check value iteration history trace: 1541.350857,1541.350857,1541.350857,1541.350857,1541.350857,1541.350857,1541.350857,1541.350857,1541.350857,1541.350857,
   **   ~~~   ** Supply-to-demand interface deck 1 energy check value iteration history trace: 2733.123173,2733.123173,2733.123172,2733.123172,2733.123172,2733.123172,2733.123172,2733.123172,2733.123172,2733.123172,
   ** Warning ** SimHVAC: Maximum iterations (20) exceeded for all HVAC loops, at ANNUAL, 11/21 17:45 - 18:00
   **   ~~~   ** The solution for one or more of the Air Loop HVAC systems did not appear to converge
   **   ~~~   ** Air System Named = CENTRAL SYSTEM did not converge for mass flow rate
   **   ~~~   ** Check values should be zero. Most Recent values listed first.
   **   ~~~   ** Demand-to-Supply interface mass flow rate check value iteration history trace: 2.026817E-002,2.026817E-002,2.026817E-002,2.026817E-002,2.026817E-002,2.026817E-002,2.026817E-002,2.026817E-002,2.026817E-002,2.026817E-002,
   **   ~~~   ** Supply-to-demand interface deck 1 mass flow rate check value iteration history trace: 2.026817E-002,2.026817E-002,2.026817E-002,2.026817E-002,2.026817E-002,2.026817E-002,2.026817E-002,2.026817E-002,2.026817E-002,2.026817E-002,
   **   ~~~   ** Air System Named = CENTRAL SYSTEM did not converge for energy
   **   ~~~   ** Check values should be zero. Most Recent values listed first.
   **   ~~~   ** Demand-to-Supply interface energy check value iteration history trace: 402.035373,402.035373,402.035373,402.035373,402.035373,402.035373,402.035373,402.035373,402.035373,402.035373,
   **   ~~~   ** Supply-to-demand interface deck 1 energy check value iteration history trace: 767.202969,767.202969,767.202969,767.202969,767.202969,767.202969,767.202969,767.202969,767.202969,767.202969,
   ************* Simulation Error Summary *************
   ** Warning ** The following Report Variables were requested but not generated -- check.rdd file
   **   ~~~   ** Either the IDF did not contain these elements, the variable name is misspelled,
   **   ~~~   ** or the requested variable is an advanced output which requires Output : Diagnostics, DisplayAdvancedReportVariables;
   ************* Key=*, VarName=BASEBOARD TOTAL HEATING ENERGY, Frequency=
   ************* Key=*, VarName=WATER HEATER NATURALGAS ENERGY, Frequency=
   ************* Key=*, VarName=COOLING COIL TOTAL HEATING ENERGY, Frequency=
   ************* There are 34 unused schedules in input.
   ************* There are 388 unused week schedules in input.
   ************* There are 396 unused day schedules in input.
   ************* Use Output:Diagnostics,DisplayUnusedSchedules; to see them.
   *************
   ************* ===== Recurring Error Summary =====
   ************* The following recurring error messages occurred.
   *************
   *************  ** Warning ** "TOTAL HOT WATER LOAD" - Target water temperature should be less than or equal to the hot water temperature error continues...
   *************  **   ~~~   **   This error occurred 82985 total times;
   *************  **   ~~~   **   during Warmup 0 times;
   *************  **   ~~~   **   during Sizing 0 times.
   *************  **   ~~~   **   Max=10.472065  Min=1.483591E-004
   *************
   *************  ** Warning ** SimHVAC: Exceeding Maximum iterations for all HVAC loops, during ANNUAL continues
   *************  **   ~~~   **   This error occurred 1 total times;
   *************  **   ~~~   **   during Warmup 0 times;
   *************  **   ~~~   **   during Sizing 0 times.
   *************
   *************
   ************* ===== Final Error Summary =====
   ************* The following error categories occurred.  Consider correcting or noting.
   ************* Nominally Unused Constructions
   ************* ..The nominally unused constructions warning is provided to alert you to potential conditions that can cause
   ************* ..extra time during simulation. Each construction is calculated by the algorithm indicated in the HeatBalanceAlgorithm
   ************* ..object. You may remove the constructions indicated (when you use the DisplayExtraWarnings option).
   *************
   ************* EnergyPlus Warmup Error Summary. During Warmup: 0 Warning; 0 Severe Errors.
   ************* EnergyPlus Sizing Error Summary. During Sizing: 4 Warning; 0 Severe Errors.
   ************* EnergyPlus Completed Successfully-- 83017 Warning; 0 Severe Errors; Elapsed Time=00hr 04min 59.08sec
