Program Version,EnergyPlus, Version 22.2.0-c249759bad, YMD=2023.09.01 19:10,
   ************* Beginning Zone Sizing Calculations
   ** Warning ** ProcessScheduleInput: Schedule:Constant="ALWAYS ON DISCRETE", Schedule Type Limits Name="ONOFF" not found -- will not be validated
   ** Warning ** Foundation:Kiva="KIVA FOUNDATION", no Interior Horizontal Insulation Material Name defined
   **   ~~~   ** Interior Horizontal Insulation Depth will not be used.
   ** Warning ** CheckUsedConstructions: There are 15 nominally unused constructions in input.
   **   ~~~   ** Each Unused construction is shown.
   ************* Construction=INTERIOR FLOOR
   ************* Construction=INTERIOR WINDOW
   ************* Construction=EXTERIOR DOOR
   ************* Construction=INTERIOR DOOR
   ************* Construction=GABLE CONSTRUCTION
   ************* Construction=CRAWL_FLOOR
   ************* Construction=INSULATED PIPE
   ************* Construction=PLAIN PIPE
   ************* Construction=TDD PIPE
   ************* Construction=TDD DOME
   ************* Construction=TDD DIFFUSER
   ************* Construction=CRAWL WALL
   ************* Construction=CEILING-FLOOR-LAYER
   ************* Construction=SLAB CONSTRUCTION W FULL R10 INSULATION
   ************* Construction=SLAB CONSTRUCTION W FULL R5 INSULATION
   ** Warning ** GetDXCoils: Coil:Heating:DX:SingleSpeed="DX_HEATING_COIL" curve values
   **   ~~~   ** ... Defrost Energy Input Ratio Function of Temperature Curve Name = DEFROSTEIR output is not equal to 1.0 (+ or - 10%) at rated conditions.
   **   ~~~   ** ... Curve output at rated conditions = 0.152
   ************* Beginning System Sizing Calculations
   ************* Beginning Plant Sizing Calculations
   ** Warning ** Coil:WaterHeating:AirToWaterHeatPump:Wrapped "HEAT PUMP WATER HEATER EVAPORATOR": Rated air volume flow rate per watt of rated total water heating capacity is out of range
   **   ~~~   ** Min Rated Vol Flow Per Watt=[4.027E-005], Rated Vol Flow Per Watt=[1.510E-004], Max Rated Vol Flow Per Watt=[8.056E-005]. See Input-Output Reference Manual for valid range.
   ************* SizeFan: : Potential issue with equipment sizing for Fan:OnOff HEAT PUMP WATER HEATER FAN
   **   ~~~   ** User-Specified Maximum Flow Rate [m3/s] = 0.22653
   **   ~~~   ** differs from Design Size Maximum Flow Rate [m3/s] = 7.55250E-002
   **   ~~~   ** This may, or may not, indicate mismatched component sizes.
   **   ~~~   ** Verify that the value entered is intended and is consistent with other components.
   ** Warning ** Water heater = WATER HEATER TANK:  Recovery Efficiency and Energy Factor could not be calculated during the test for standard ratings
   **   ~~~   ** Setpoint was never recovered and/or heater never turned on
   ** Warning ** Check input. Pump nominal power or motor efficiency is set to 0, for pump=MAINS PRESSURE
   ** Warning ** Output:Meter: invalid Key Name="ELECTRIC_RANGE:INTERIOREQUIPMENT:ELECTRICITY" - not found.
   ** Warning ** Output:Meter: invalid Key Name="ELECTRIC_DRYER:INTERIOREQUIPMENT:ELECTRICITY" - not found.
   ** Warning ** Output:Meter: invalid Key Name="HEATRECOVERY:ELECTRICITY" - not found.
   ** Warning ** Output:Meter: invalid Key Name="HEATING:NATURALGAS" - not found.
   ** Warning ** Output:Meter: invalid Key Name="WATERSYSTEMS:NATURALGAS" - not found.
   ** Warning ** Output:Meter: invalid Key Name="PROPANE:FACILITY" - not found.
   ** Warning ** Output:Meter: invalid Key Name="HEATING:PROPANE" - not found.
   ************* Testing Individual Branch Integrity
   ************* All Branches passed integrity testing
   ************* Testing Individual Supply Air Path Integrity
   ************* All Supply Air Paths passed integrity testing
   ************* Testing Individual Return Air Path Integrity
   ************* All Return Air Paths passed integrity testing
   ************* No node connection errors were found.
   ************* Beginning Simulation
   ** Warning ** AirflowNetwork::Solver::validate_distribution: Heat pump water heater is simulated along with an AirflowNetwork but is not included in the AirflowNetwork.
   ** Warning ** CalcEquipmentFlowRates: "TOTAL HOT WATER LOAD" - Target water temperature is greater than the hot water temperature by (0.19 C)
   **   ~~~   **  Environment=EXTREME_WINTER, at Simulation time=12/22 06:45 - 07:00
   **   ~~~   ** ...target water temperature     = 53.33 C
   **   ~~~   ** ...hot water temperature        = 53.14 C
   **   ~~~   ** ...Target water temperature should be less than or equal to the hot water temperature. Verify temperature setpoints and schedules.
   ** Warning ** SimHVAC: Maximum iterations (20) exceeded for all HVAC loops, at ANNUAL, 02/14 15:15 - 15:30
   **   ~~~   ** The solution for one or more of the Air Loop HVAC systems did not appear to converge
   **   ~~~   ** Air System Named = CENTRAL SYSTEM did not converge for mass flow rate
   **   ~~~   ** Check values should be zero. Most Recent values listed first.
   **   ~~~   ** Demand-to-Supply interface mass flow rate check value iteration history trace: 5.766965E-002,5.766965E-002,5.766965E-002,5.766965E-002,5.766965E-002,5.766965E-002,5.766965E-002,5.766965E-002,5.766965E-002,5.766965E-002,
   **   ~~~   ** Supply-to-demand interface deck 1 mass flow rate check value iteration history trace: 5.766965E-002,5.766965E-002,5.766965E-002,5.766965E-002,5.766965E-002,5.766965E-002,5.766965E-002,5.766965E-002,5.766965E-002,5.766965E-002,
   **   ~~~   ** Air System Named = CENTRAL SYSTEM did not converge for energy
   **   ~~~   ** Check values should be zero. Most Recent values listed first.
   **   ~~~   ** Demand-to-Supply interface energy check value iteration history trace: 1143.018689,1143.018689,1143.018689,1143.018688,1143.018688,1143.018688,1143.018688,1143.018688,1143.018687,1143.018687,
   **   ~~~   ** Supply-to-demand interface deck 1 energy check value iteration history trace: 2076.913094,2076.913094,2076.913094,2076.913093,2076.913093,2076.913093,2076.913092,2076.913092,2076.913092,2076.913091,
   **   ~~~   ** Node named ZONE INLET NODE shows oscillating temperatures across iterations with a repeated value of 35.840367
   **   ~~~   ** Node named ZONE INLET NODE temperature [C] iteration history trace (most recent first): 35.840367,35.840367,35.840367,35.840366,35.840366,35.840366,35.840365,35.840365,35.840365,35.840365,
   ** Warning ** SimHVAC: Maximum iterations (20) exceeded for all HVAC loops, at ANNUAL, 02/25 19:20 - 19:25
   **   ~~~   ** The solution for one or more of the Air Loop HVAC systems did not appear to converge
   **   ~~~   ** Air System Named = CENTRAL SYSTEM did not converge for mass flow rate
   **   ~~~   ** Check values should be zero. Most Recent values listed first.
   **   ~~~   ** Demand-to-Supply interface mass flow rate check value iteration history trace: 8.813092E-002,8.813092E-002,8.813092E-002,8.813092E-002,8.813092E-002,8.813092E-002,8.813092E-002,8.813092E-002,8.813092E-002,8.813092E-002,
   **   ~~~   ** Supply-to-demand interface deck 1 mass flow rate check value iteration history trace: 8.813092E-002,8.813092E-002,8.813092E-002,8.813092E-002,8.813092E-002,8.813092E-002,8.813092E-002,8.813092E-002,8.813092E-002,8.813092E-002,
   **   ~~~   ** Air System Named = CENTRAL SYSTEM did not converge for energy
   **   ~~~   ** Check values should be zero. Most Recent values listed first.
   **   ~~~   ** Demand-to-Supply interface energy check value iteration history trace: 1745.419961,1745.419961,1745.419961,1745.419961,1745.419961,1745.419961,1745.419961,1745.419960,1745.419960,1745.419960,
   **   ~~~   ** Supply-to-demand interface deck 1 energy check value iteration history trace: 2701.337613,2701.337613,2701.337613,2701.337613,2701.337613,2701.337612,2701.337612,2701.337612,2701.337612,2701.337612,
   ** Warning ** SimHVAC: Maximum iterations (20) exceeded for all HVAC loops, at ANNUAL, 06/11 00:08 - 00:15
   **   ~~~   ** The solution for one or more of the Air Loop HVAC systems did not appear to converge
   **   ~~~   ** Air System Named = CENTRAL SYSTEM did not converge for mass flow rate
   **   ~~~   ** Check values should be zero. Most Recent values listed first.
   **   ~~~   ** Demand-to-Supply interface mass flow rate check value iteration history trace: 0.117276,0.117276,0.117276,0.117276,0.117276,0.117276,0.117276,0.117276,0.117276,0.117276,
   **   ~~~   ** Supply-to-demand interface deck 1 mass flow rate check value iteration history trace: 0.117276,0.117276,0.117276,0.117276,0.117276,0.117276,0.117276,0.117276,0.117276,0.117276,
   **   ~~~   ** Air System Named = CENTRAL SYSTEM did not converge for energy
   **   ~~~   ** Check values should be zero. Most Recent values listed first.
   **   ~~~   ** Demand-to-Supply interface energy check value iteration history trace: 2899.810232,2899.810233,2899.810233,2899.810234,2899.810234,2899.810235,2899.810235,2899.810236,2899.810236,2899.810237,
   **   ~~~   ** Supply-to-demand interface deck 1 energy check value iteration history trace: 1539.390275,1539.390275,1539.390276,1539.390276,1539.390276,1539.390276,1539.390277,1539.390277,1539.390277,1539.390277,
   ** Warning ** SimHVAC: Maximum iterations (20) exceeded for all HVAC loops, at ANNUAL, 10/12 10:35 - 10:40
   **   ~~~   ** The solution for one or more of the Air Loop HVAC systems did not appear to converge
   **   ~~~   ** Air System Named = CENTRAL SYSTEM did not converge for mass flow rate
   **   ~~~   ** Check values should be zero. Most Recent values listed first.
   **   ~~~   ** Demand-to-Supply interface mass flow rate check value iteration history trace: 1.208801E-002,1.208801E-002,1.208801E-002,1.208801E-002,1.208801E-002,1.208801E-002,1.208801E-002,1.208801E-002,1.208801E-002,1.208801E-002,
   **   ~~~   ** Supply-to-demand interface deck 1 mass flow rate check value iteration history trace: 1.208801E-002,1.208801E-002,1.208801E-002,1.208801E-002,1.208801E-002,1.208801E-002,1.208801E-002,1.208801E-002,1.208801E-002,1.208801E-002,
   **   ~~~   ** Air System Named = CENTRAL SYSTEM did not converge for energy
   **   ~~~   ** Check values should be zero. Most Recent values listed first.
   **   ~~~   ** Demand-to-Supply interface energy check value iteration history trace: 283.517450,283.517450,283.517450,283.517450,283.517450,283.517450,283.517450,283.517450,283.517451,283.517451,
   **   ~~~   ** Supply-to-demand interface deck 1 energy check value iteration history trace: 134.877778,134.877778,134.877778,134.877778,134.877778,134.877779,134.877779,134.877779,134.877779,134.877779,
   ** Warning ** SimHVAC: Maximum iterations (20) exceeded for all HVAC loops, at ANNUAL, 10/12 12:15 - 12:30
   **   ~~~   ** The solution for one or more of the Air Loop HVAC systems did not appear to converge
   **   ~~~   ** Air System Named = CENTRAL SYSTEM did not converge for mass flow rate
   **   ~~~   ** Check values should be zero. Most Recent values listed first.
   **   ~~~   ** Demand-to-Supply interface mass flow rate check value iteration history trace: 2.972769E-002,2.972769E-002,2.972769E-002,2.972769E-002,2.972769E-002,2.972769E-002,2.972769E-002,2.972769E-002,2.972769E-002,2.972769E-002,
   **   ~~~   ** Supply-to-demand interface deck 1 mass flow rate check value iteration history trace: 2.972769E-002,2.972769E-002,2.972769E-002,2.972769E-002,2.972769E-002,2.972769E-002,2.972769E-002,2.972769E-002,2.972769E-002,2.972769E-002,
   **   ~~~   ** Air System Named = CENTRAL SYSTEM did not converge for energy
   **   ~~~   ** Check values should be zero. Most Recent values listed first.
   **   ~~~   ** Demand-to-Supply interface energy check value iteration history trace: 699.491341,699.491341,699.491341,699.491341,699.491341,699.491341,699.491342,699.491342,699.491342,699.491342,
   **   ~~~   ** Supply-to-demand interface deck 1 energy check value iteration history trace: 328.738694,328.738694,328.738694,328.738694,328.738694,328.738694,328.738694,328.738694,328.738694,328.738694,
   ** Warning ** SimHVAC: Maximum iterations (20) exceeded for all HVAC loops, at ANNUAL, 10/26 09:25 - 09:27
   **   ~~~   ** The solution for one or more of the Air Loop HVAC systems did not appear to converge
   **   ~~~   ** Air System Named = CENTRAL SYSTEM did not converge for mass flow rate
   **   ~~~   ** Check values should be zero. Most Recent values listed first.
   **   ~~~   ** Demand-to-Supply interface mass flow rate check value iteration history trace: 6.624651E-002,6.624651E-002,6.624651E-002,6.624651E-002,6.624651E-002,6.624651E-002,6.624651E-002,6.624651E-002,6.624651E-002,6.624651E-002,
   **   ~~~   ** Supply-to-demand interface deck 1 mass flow rate check value iteration history trace: 6.624651E-002,6.624651E-002,6.624651E-002,6.624651E-002,6.624651E-002,6.624651E-002,6.624651E-002,6.624651E-002,6.624651E-002,6.624651E-002,
   **   ~~~   ** Air System Named = CENTRAL SYSTEM did not converge for energy
   **   ~~~   ** Check values should be zero. Most Recent values listed first.
   **   ~~~   ** Demand-to-Supply interface energy check value iteration history trace: 1311.914955,1311.914955,1311.914955,1311.914955,1311.914955,1311.914955,1311.914955,1311.914955,1311.914954,1311.914954,
   **   ~~~   ** Supply-to-demand interface deck 1 energy check value iteration history trace: 2372.755855,2372.755855,2372.755855,2372.755854,2372.755854,2372.755854,2372.755854,2372.755854,2372.755854,2372.755854,
   ** Warning ** SimHVAC: Maximum iterations (20) exceeded for all HVAC loops, at ANNUAL, 10/27 04:00 - 04:15
   **   ~~~   ** The solution for one or more of the Air Loop HVAC systems did not appear to converge
   **   ~~~   ** Air System Named = CENTRAL SYSTEM did not converge for mass flow rate
   **   ~~~   ** Check values should be zero. Most Recent values listed first.
   **   ~~~   ** Demand-to-Supply interface mass flow rate check value iteration history trace: 1.839777E-002,1.839777E-002,1.839777E-002,1.839777E-002,1.839777E-002,1.839777E-002,1.839777E-002,1.839777E-002,1.839777E-002,1.839777E-002,
   **   ~~~   ** Supply-to-demand interface deck 1 mass flow rate check value iteration history trace: 1.839777E-002,1.839777E-002,1.839777E-002,1.839777E-002,1.839777E-002,1.839777E-002,1.839777E-002,1.839777E-002,1.839777E-002,1.839777E-002,
   **   ~~~   ** Air System Named = CENTRAL SYSTEM did not converge for energy
   **   ~~~   ** Check values should be zero. Most Recent values listed first.
   **   ~~~   ** Demand-to-Supply interface energy check value iteration history trace: 341.049181,341.049181,341.049181,341.049181,341.049181,341.049181,341.049181,341.049181,341.049181,341.049181,
   **   ~~~   ** Supply-to-demand interface deck 1 energy check value iteration history trace: 636.973672,636.973672,636.973672,636.973672,636.973672,636.973672,636.973672,636.973672,636.973672,636.973672,
   ** Warning ** SimHVAC: Maximum iterations (20) exceeded for all HVAC loops, at ANNUAL, 11/01 09:30 - 09:45
   **   ~~~   ** The solution for one or more of the Air Loop HVAC systems did not appear to converge
   **   ~~~   ** Air System Named = CENTRAL SYSTEM did not converge for mass flow rate
   **   ~~~   ** Check values should be zero. Most Recent values listed first.
   **   ~~~   ** Demand-to-Supply interface mass flow rate check value iteration history trace: 6.442882E-002,6.442882E-002,6.442882E-002,6.442882E-002,6.442882E-002,6.442882E-002,6.442882E-002,6.442882E-002,6.442882E-002,6.442882E-002,
   **   ~~~   ** Supply-to-demand interface deck 1 mass flow rate check value iteration history trace: 6.442882E-002,6.442882E-002,6.442882E-002,6.442882E-002,6.442882E-002,6.442882E-002,6.442882E-002,6.442882E-002,6.442882E-002,6.442882E-002,
   **   ~~~   ** Air System Named = CENTRAL SYSTEM did not converge for energy
   **   ~~~   ** Check values should be zero. Most Recent values listed first.
   **   ~~~   ** Demand-to-Supply interface energy check value iteration history trace: 1276.715500,1276.715500,1276.715500,1276.715499,1276.715499,1276.715499,1276.715499,1276.715499,1276.715499,1276.715499,
   **   ~~~   ** Supply-to-demand interface deck 1 energy check value iteration history trace: 2300.972922,2300.972922,2300.972921,2300.972921,2300.972921,2300.972921,2300.972921,2300.972921,2300.972921,2300.972921,
   ** Warning ** SimHVAC: Maximum iterations (20) exceeded for all HVAC loops, at ANNUAL, 11/04 09:45 - 10:00
   **   ~~~   ** The solution for one or more of the Air Loop HVAC systems did not appear to converge
   **   ~~~   ** Air System Named = CENTRAL SYSTEM did not converge for mass flow rate
   **   ~~~   ** Check values should be zero. Most Recent values listed first.
   **   ~~~   ** Demand-to-Supply interface mass flow rate check value iteration history trace: 7.247669E-002,7.247669E-002,7.247669E-002,7.247669E-002,7.247669E-002,7.247669E-002,7.247669E-002,7.247669E-002,7.247669E-002,7.247669E-002,
   **   ~~~   ** Supply-to-demand interface deck 1 mass flow rate check value iteration history trace: 7.247669E-002,7.247669E-002,7.247669E-002,7.247669E-002,7.247669E-002,7.247669E-002,7.247669E-002,7.247669E-002,7.247669E-002,7.247669E-002,
   **   ~~~   ** Air System Named = CENTRAL SYSTEM did not converge for energy
   **   ~~~   ** Check values should be zero. Most Recent values listed first.
   **   ~~~   ** Demand-to-Supply interface energy check value iteration history trace: 1436.172423,1436.172423,1436.172423,1436.172422,1436.172422,1436.172422,1436.172422,1436.172422,1436.172422,1436.172422,
   **   ~~~   ** Supply-to-demand interface deck 1 energy check value iteration history trace: 2560.410176,2560.410176,2560.410175,2560.410175,2560.410175,2560.410175,2560.410175,2560.410175,2560.410175,2560.410175,
   ** Warning ** SimHVAC: Maximum iterations (20) exceeded for all HVAC loops, at ANNUAL, 11/11 11:19 - 11:22
   **   ~~~   ** The solution for one or more of the Air Loop HVAC systems did not appear to converge
   **   ~~~   ** Air System Named = CENTRAL SYSTEM did not converge for mass flow rate
   **   ~~~   ** Check values should be zero. Most Recent values listed first.
   **   ~~~   ** Demand-to-Supply interface mass flow rate check value iteration history trace: 6.682698E-002,6.682698E-002,6.682698E-002,6.682698E-002,6.682698E-002,6.682698E-002,6.682698E-002,6.682698E-002,6.682698E-002,6.682698E-002,
   **   ~~~   ** Supply-to-demand interface deck 1 mass flow rate check value iteration history trace: 6.682698E-002,6.682698E-002,6.682698E-002,6.682698E-002,6.682698E-002,6.682698E-002,6.682698E-002,6.682698E-002,6.682698E-002,6.682698E-002,
   **   ~~~   ** Air System Named = CENTRAL SYSTEM did not converge for energy
   **   ~~~   ** Check values should be zero. Most Recent values listed first.
   **   ~~~   ** Demand-to-Supply interface energy check value iteration history trace: 1319.891947,1319.891947,1319.891946,1319.891946,1319.891946,1319.891946,1319.891946,1319.891946,1319.891946,1319.891946,
   **   ~~~   ** Supply-to-demand interface deck 1 energy check value iteration history trace: 2370.394064,2370.394064,2370.394064,2370.394064,2370.394064,2370.394064,2370.394063,2370.394063,2370.394063,2370.394063,
   ** Warning ** SimHVAC: Maximum iterations (20) exceeded for all HVAC loops, at ANNUAL, 11/16 11:45 - 11:49
   **   ~~~   ** The solution for one or more of the Air Loop HVAC systems did not appear to converge
   **   ~~~   ** Air System Named = CENTRAL SYSTEM did not converge for mass flow rate
   **   ~~~   ** Check values should be zero. Most Recent values listed first.
   **   ~~~   ** Demand-to-Supply interface mass flow rate check value iteration history trace: 8.350064E-002,8.350064E-002,8.350064E-002,8.350064E-002,8.350064E-002,8.350064E-002,8.350064E-002,8.350064E-002,8.350064E-002,8.350064E-002,
   **   ~~~   ** Supply-to-demand interface deck 1 mass flow rate check value iteration history trace: 8.350064E-002,8.350064E-002,8.350064E-002,8.350064E-002,8.350064E-002,8.350064E-002,8.350064E-002,8.350064E-002,8.350064E-002,8.350064E-002,
   **   ~~~   ** Air System Named = CENTRAL SYSTEM did not converge for energy
   **   ~~~   ** Check values should be zero. Most Recent values listed first.
   **   ~~~   ** Demand-to-Supply interface energy check value iteration history trace: 1649.100035,1649.100035,1649.100035,1649.100035,1649.100035,1649.100034,1649.100034,1649.100034,1649.100034,1649.100034,
   **   ~~~   ** Supply-to-demand interface deck 1 energy check value iteration history trace: 2643.348616,2643.348616,2643.348616,2643.348616,2643.348616,2643.348615,2643.348615,2643.348615,2643.348615,2643.348615,
   ** Warning ** SimHVAC: Maximum iterations (20) exceeded for all HVAC loops, at ANNUAL, 11/23 14:15 - 14:30
   **   ~~~   ** The solution for one or more of the Air Loop HVAC systems did not appear to converge
   **   ~~~   ** Air System Named = CENTRAL SYSTEM did not converge for mass flow rate
   **   ~~~   ** Check values should be zero. Most Recent values listed first.
   **   ~~~   ** Demand-to-Supply interface mass flow rate check value iteration history trace: 6.544281E-002,6.544281E-002,6.544281E-002,6.544281E-002,6.544281E-002,6.544281E-002,6.544281E-002,6.544281E-002,6.544281E-002,6.544281E-002,
   **   ~~~   ** Supply-to-demand interface deck 1 mass flow rate check value iteration history trace: 6.544281E-002,6.544281E-002,6.544281E-002,6.544281E-002,6.544281E-002,6.544281E-002,6.544281E-002,6.544281E-002,6.544281E-002,6.544281E-002,
   **   ~~~   ** Air System Named = CENTRAL SYSTEM did not converge for energy
   **   ~~~   ** Check values should be zero. Most Recent values listed first.
   **   ~~~   ** Demand-to-Supply interface energy check value iteration history trace: 1296.915784,1296.915784,1296.915784,1296.915784,1296.915784,1296.915784,1296.915783,1296.915783,1296.915783,1296.915783,
   **   ~~~   ** Supply-to-demand interface deck 1 energy check value iteration history trace: 1982.398649,1982.398649,1982.398648,1982.398648,1982.398648,1982.398648,1982.398648,1982.398648,1982.398648,1982.398647,
   ************* Simulation Error Summary *************
   ** Warning ** The following Report Variables were requested but not generated -- check.rdd file
   **   ~~~   ** Either the IDF did not contain these elements, the variable name is misspelled,
   **   ~~~   ** or the requested variable is an advanced output which requires Output : Diagnostics, DisplayAdvancedReportVariables;
   ************* Key=*, VarName=BASEBOARD TOTAL HEATING ENERGY, Frequency=
   ************* Key=*, VarName=WATER HEATER NATURALGAS ENERGY, Frequency=
   ************* Key=*, VarName=COOLING COIL TOTAL HEATING ENERGY, Frequency=
   ************* There are 34 unused schedules in input.
   ************* There are 388 unused week schedules in input.
   ************* There are 397 unused day schedules in input.
   ************* Use Output:Diagnostics,DisplayUnusedSchedules; to see them.
   *************
   ************* ===== Recurring Error Summary =====
   ************* The following recurring error messages occurred.
   *************
   *************  ** Warning ** "TOTAL HOT WATER LOAD" - Target water temperature should be less than or equal to the hot water temperature error continues...
   *************  **   ~~~   **   This error occurred 96111 total times;
   *************  **   ~~~   **   during Warmup 0 times;
   *************  **   ~~~   **   during Sizing 0 times.
   *************  **   ~~~   **   Max=9.76349  Min=2.934213E-005
   *************
   *************
   ************* ===== Final Error Summary =====
   ************* The following error categories occurred.  Consider correcting or noting.
   ************* Nominally Unused Constructions
   ************* ..The nominally unused constructions warning is provided to alert you to potential conditions that can cause
   ************* ..extra time during simulation. Each construction is calculated by the algorithm indicated in the HeatBalanceAlgorithm
   ************* ..object. You may remove the constructions indicated (when you use the DisplayExtraWarnings option).
   *************
   ************* EnergyPlus Warmup Error Summary. During Warmup: 1 Warning; 0 Severe Errors.
   ************* EnergyPlus Sizing Error Summary. During Sizing: 4 Warning; 0 Severe Errors.
   ************* EnergyPlus Completed Successfully-- 96140 Warning; 0 Severe Errors; Elapsed Time=00hr 01min 36.36sec
