Program Version,EnergyPlus, Version 22.2.0-c249759bad, YMD=2023.09.01 19:08,
   ************* Beginning Zone Sizing Calculations
   ** Warning ** ProcessScheduleInput: Schedule:Constant="ALWAYS ON DISCRETE", Schedule Type Limits Name="ONOFF" not found -- will not be validated
   ** Warning ** Foundation:Kiva="KIVA FOUNDATION", no Interior Horizontal Insulation Material Name defined
   **   ~~~   ** Interior Horizontal Insulation Depth will not be used.
   ** Warning ** CheckUsedConstructions: There are 15 nominally unused constructions in input.
   **   ~~~   ** Each Unused construction is shown.
   ************* Construction=INTERIOR FLOOR
   ************* Construction=INTERIOR WINDOW
   ************* Construction=EXTERIOR DOOR
   ************* Construction=INTERIOR DOOR
   ************* Construction=GABLE CONSTRUCTION
   ************* Construction=CRAWL_FLOOR
   ************* Construction=INSULATED PIPE
   ************* Construction=PLAIN PIPE
   ************* Construction=TDD PIPE
   ************* Construction=TDD DOME
   ************* Construction=TDD DIFFUSER
   ************* Construction=CRAWL WALL
   ************* Construction=CEILING-FLOOR-LAYER
   ************* Construction=SLAB CONSTRUCTION W FULL R10 INSULATION
   ************* Construction=SLAB CONSTRUCTION W FULL R5 INSULATION
   ** Warning ** GetDXCoils: Coil:Heating:DX:SingleSpeed="DX_HEATING_COIL" curve values
   **   ~~~   ** ... Defrost Energy Input Ratio Function of Temperature Curve Name = DEFROSTEIR output is not equal to 1.0 (+ or - 10%) at rated conditions.
   **   ~~~   ** ... Curve output at rated conditions = 0.152
   ************* Beginning System Sizing Calculations
   ************* Beginning Plant Sizing Calculations
   ** Warning ** Coil:WaterHeating:AirToWaterHeatPump:Wrapped "HEAT PUMP WATER HEATER EVAPORATOR": Rated air volume flow rate per watt of rated total water heating capacity is out of range
   **   ~~~   ** Min Rated Vol Flow Per Watt=[4.027E-005], Rated Vol Flow Per Watt=[1.510E-004], Max Rated Vol Flow Per Watt=[8.056E-005]. See Input-Output Reference Manual for valid range.
   ************* SizeFan: : Potential issue with equipment sizing for Fan:OnOff HEAT PUMP WATER HEATER FAN
   **   ~~~   ** User-Specified Maximum Flow Rate [m3/s] = 0.22653
   **   ~~~   ** differs from Design Size Maximum Flow Rate [m3/s] = 7.55250E-002
   **   ~~~   ** This may, or may not, indicate mismatched component sizes.
   **   ~~~   ** Verify that the value entered is intended and is consistent with other components.
   ** Warning ** Water heater = WATER HEATER TANK:  Recovery Efficiency and Energy Factor could not be calculated during the test for standard ratings
   **   ~~~   ** Setpoint was never recovered and/or heater never turned on
   ** Warning ** Check input. Pump nominal power or motor efficiency is set to 0, for pump=MAINS PRESSURE
   ** Warning ** Output:Meter: invalid Key Name="ELECTRIC_RANGE:INTERIOREQUIPMENT:ELECTRICITY" - not found.
   ** Warning ** Output:Meter: invalid Key Name="ELECTRIC_DRYER:INTERIOREQUIPMENT:ELECTRICITY" - not found.
   ** Warning ** Output:Meter: invalid Key Name="HEATRECOVERY:ELECTRICITY" - not found.
   ** Warning ** Output:Meter: invalid Key Name="HEATING:NATURALGAS" - not found.
   ** Warning ** Output:Meter: invalid Key Name="WATERSYSTEMS:NATURALGAS" - not found.
   ** Warning ** Output:Meter: invalid Key Name="PROPANE:FACILITY" - not found.
   ** Warning ** Output:Meter: invalid Key Name="HEATING:PROPANE" - not found.
   ************* Testing Individual Branch Integrity
   ************* All Branches passed integrity testing
   ************* Testing Individual Supply Air Path Integrity
   ************* All Supply Air Paths passed integrity testing
   ************* Testing Individual Return Air Path Integrity
   ************* All Return Air Paths passed integrity testing
   ************* No node connection errors were found.
   ************* Beginning Simulation
   ** Warning ** AirflowNetwork::Solver::validate_distribution: Heat pump water heater is simulated along with an AirflowNetwork but is not included in the AirflowNetwork.
   ** Severe  ** CheckWarmupConvergence: Loads Initialization, Zone="LIVING" did not converge after 25 warmup days.
   **   ~~~   ** See Warmup Convergence Information in .eio file for details.
   **   ~~~   ** ...Environment(SizingPeriod)="EXTREME_WINTER"
   **   ~~~   ** ..Max Temp Comparison = 1.02E-002 vs Temperature Convergence Tolerance=5.00E-002 - Pass Convergence
   **   ~~~   ** ..Min Temp Comparison = 0.16 vs Temperature Convergence Tolerance=5.00E-002 - Fail Convergence
   **   ~~~   ** ..Max Heat Load Comparison = 5.7175E-002 vs Loads Convergence Tolerance=5.00E-002 - Fail Convergence
   **   ~~~   ** ..Max Cool Load Comparison = 7.0282E-005 vs Loads Convergence Tolerance=5.00E-002 - Pass Convergence
   ** Severe  ** CheckWarmupConvergence: Loads Initialization, Zone="ATTIC" did not converge after 25 warmup days.
   **   ~~~   ** ...Environment(SizingPeriod)="EXTREME_WINTER"
   **   ~~~   ** ..Max Temp Comparison = 0.29 vs Temperature Convergence Tolerance=5.00E-002 - Fail Convergence
   **   ~~~   ** ..Min Temp Comparison = 2.01E-002 vs Temperature Convergence Tolerance=5.00E-002 - Pass Convergence
   **   ~~~   ** ..Max Heat Load Comparison = 0.0000 vs Loads Convergence Tolerance=5.00E-002 - Pass Convergence
   **   ~~~   ** ..Max Cool Load Comparison = 0.0000 vs Loads Convergence Tolerance=5.00E-002 - Pass Convergence
   ** Warning ** CalcEquipmentFlowRates: "TOTAL HOT WATER LOAD" - Target water temperature is greater than the hot water temperature by (8.03E-002 C)
   **   ~~~   **  Environment=EXTREME_WINTER, at Simulation time=01/08 06:45 - 07:00
   **   ~~~   ** ...target water temperature     = 53.33 C
   **   ~~~   ** ...hot water temperature        = 53.25 C
   **   ~~~   ** ...Target water temperature should be less than or equal to the hot water temperature. Verify temperature setpoints and schedules.
   ** Warning ** SimHVAC: Maximum iterations (20) exceeded for all HVAC loops, at EXTREME_SUMMER, 07/21 03:45 - 04:00
   **   ~~~   ** The solution for one or more of the Air Loop HVAC systems did not appear to converge
   **   ~~~   ** Air System Named = CENTRAL SYSTEM did not converge for mass flow rate
   **   ~~~   ** Check values should be zero. Most Recent values listed first.
   **   ~~~   ** Demand-to-Supply interface mass flow rate check value iteration history trace: 1.804586E-002,1.804586E-002,1.804586E-002,1.804586E-002,1.804586E-002,1.804586E-002,1.804586E-002,1.804586E-002,1.804586E-002,1.804586E-002,
   **   ~~~   ** Supply-to-demand interface deck 1 mass flow rate check value iteration history trace: 1.804586E-002,1.804586E-002,1.804586E-002,1.804586E-002,1.804586E-002,1.804586E-002,1.804586E-002,1.804586E-002,1.804586E-002,1.804586E-002,
   **   ~~~   ** Air System Named = CENTRAL SYSTEM did not converge for energy
   **   ~~~   ** Check values should be zero. Most Recent values listed first.
   **   ~~~   ** Demand-to-Supply interface energy check value iteration history trace: 440.921562,440.921562,440.921562,440.921562,440.921562,440.921563,440.921563,440.921563,440.921563,440.921563,
   **   ~~~   ** Supply-to-demand interface deck 1 energy check value iteration history trace: 243.929398,243.929398,243.929399,243.929399,243.929399,243.929399,243.929399,243.929399,243.929399,243.929399,
   ** Warning ** SimHVAC: Maximum iterations (20) exceeded for all HVAC loops, at ANNUAL, 01/09 14:30 - 14:45
   **   ~~~   ** The solution for one or more of the Air Loop HVAC systems did not appear to converge
   **   ~~~   ** Air System Named = CENTRAL SYSTEM did not converge for mass flow rate
   **   ~~~   ** Check values should be zero. Most Recent values listed first.
   **   ~~~   ** Demand-to-Supply interface mass flow rate check value iteration history trace: 6.514765E-002,6.514765E-002,6.514765E-002,6.514765E-002,6.514765E-002,6.514765E-002,6.514765E-002,6.514765E-002,6.514765E-002,6.514765E-002,
   **   ~~~   ** Supply-to-demand interface deck 1 mass flow rate check value iteration history trace: 6.514765E-002,6.514765E-002,6.514765E-002,6.514765E-002,6.514765E-002,6.514765E-002,6.514765E-002,6.514765E-002,6.514765E-002,6.514765E-002,
   **   ~~~   ** Air System Named = CENTRAL SYSTEM did not converge for energy
   **   ~~~   ** Check values should be zero. Most Recent values listed first.
   **   ~~~   ** Demand-to-Supply interface energy check value iteration history trace: 1290.940951,1290.940951,1290.940951,1290.940951,1290.940951,1290.940951,1290.940951,1290.940951,1290.940950,1290.940950,
   **   ~~~   ** Supply-to-demand interface deck 1 energy check value iteration history trace: 2003.718183,2003.718183,2003.718183,2003.718183,2003.718183,2003.718182,2003.718182,2003.718182,2003.718182,2003.718182,
   ** Warning ** Temperature out of range [-100. to 200.] (PsyPsatFnTemp)
   **   ~~~   **  Routine=PsyTwbFnTdbWPb, Environment=ANNUAL, at Simulation time=01/19 05:30 - 05:35
   **   ~~~   **  Input Temperature=-127.09
   ** Warning ** SimHVAC: Maximum iterations (20) exceeded for all HVAC loops, at ANNUAL, 02/08 08:45 - 09:00
   **   ~~~   ** The solution for one or more of the Air Loop HVAC systems did not appear to converge
   **   ~~~   ** Air System Named = CENTRAL SYSTEM did not converge for mass flow rate
   **   ~~~   ** Check values should be zero. Most Recent values listed first.
   **   ~~~   ** Demand-to-Supply interface mass flow rate check value iteration history trace: 6.287895E-002,6.287895E-002,6.287895E-002,6.287895E-002,6.287895E-002,6.287895E-002,6.287895E-002,6.287895E-002,6.287895E-002,6.287895E-002,
   **   ~~~   ** Supply-to-demand interface deck 1 mass flow rate check value iteration history trace: 6.287895E-002,6.287895E-002,6.287895E-002,6.287895E-002,6.287895E-002,6.287895E-002,6.287895E-002,6.287895E-002,6.287895E-002,6.287895E-002,
   **   ~~~   ** Air System Named = CENTRAL SYSTEM did not converge for energy
   **   ~~~   ** Check values should be zero. Most Recent values listed first.
   **   ~~~   ** Demand-to-Supply interface energy check value iteration history trace: 1246.053899,1246.053899,1246.053899,1246.053899,1246.053899,1246.053899,1246.053899,1246.053899,1246.053899,1246.053899,
   **   ~~~   ** Supply-to-demand interface deck 1 energy check value iteration history trace: 2333.183602,2333.183602,2333.183602,2333.183602,2333.183602,2333.183602,2333.183602,2333.183602,2333.183602,2333.183602,
   ** Warning ** SimHVAC: Maximum iterations (20) exceeded for all HVAC loops, at ANNUAL, 03/04 19:15 - 19:22
   **   ~~~   ** The solution for one or more of the Air Loop HVAC systems did not appear to converge
   **   ~~~   ** Air System Named = CENTRAL SYSTEM did not converge for mass flow rate
   **   ~~~   ** Check values should be zero. Most Recent values listed first.
   **   ~~~   ** Demand-to-Supply interface mass flow rate check value iteration history trace: 9.439353E-002,9.439353E-002,9.439353E-002,9.439353E-002,9.439353E-002,9.439353E-002,9.439353E-002,9.439353E-002,9.439353E-002,9.439353E-002,
   **   ~~~   ** Supply-to-demand interface deck 1 mass flow rate check value iteration history trace: 9.439353E-002,9.439353E-002,9.439353E-002,9.439353E-002,9.439353E-002,9.439353E-002,9.439353E-002,9.439353E-002,9.439353E-002,9.439353E-002,
   **   ~~~   ** Air System Named = CENTRAL SYSTEM did not converge for energy
   **   ~~~   ** Check values should be zero. Most Recent values listed first.
   **   ~~~   ** Demand-to-Supply interface energy check value iteration history trace: 1865.482130,1865.482130,1865.482130,1865.482130,1865.482130,1865.482130,1865.482130,1865.482130,1865.482129,1865.482129,
   **   ~~~   ** Supply-to-demand interface deck 1 energy check value iteration history trace: 2898.333395,2898.333394,2898.333394,2898.333394,2898.333394,2898.333394,2898.333393,2898.333393,2898.333393,2898.333393,
   ** Warning ** SimHVAC: Maximum iterations (20) exceeded for all HVAC loops, at ANNUAL, 03/11 11:53 - 12:00
   **   ~~~   ** The solution for one or more of the Air Loop HVAC systems did not appear to converge
   **   ~~~   ** Air System Named = CENTRAL SYSTEM did not converge for mass flow rate
   **   ~~~   ** Check values should be zero. Most Recent values listed first.
   **   ~~~   ** Demand-to-Supply interface mass flow rate check value iteration history trace: 6.307936E-002,6.307936E-002,6.307936E-002,6.307936E-002,6.307936E-002,6.307936E-002,6.307936E-002,6.307936E-002,6.307936E-002,6.307936E-002,
   **   ~~~   ** Supply-to-demand interface deck 1 mass flow rate check value iteration history trace: 6.307936E-002,6.307936E-002,6.307936E-002,6.307936E-002,6.307936E-002,6.307936E-002,6.307936E-002,6.307936E-002,6.307936E-002,6.307936E-002,
   **   ~~~   ** Air System Named = CENTRAL SYSTEM did not converge for energy
   **   ~~~   ** Check values should be zero. Most Recent values listed first.
   **   ~~~   ** Demand-to-Supply interface energy check value iteration history trace: 1238.189316,1238.189316,1238.189316,1238.189316,1238.189316,1238.189315,1238.189315,1238.189315,1238.189315,1238.189315,
   **   ~~~   ** Supply-to-demand interface deck 1 energy check value iteration history trace: 2188.655548,2188.655548,2188.655548,2188.655548,2188.655548,2188.655548,2188.655548,2188.655548,2188.655548,2188.655548,
   ** Warning ** SimHVAC: Maximum iterations (20) exceeded for all HVAC loops, at ANNUAL, 03/30 11:15 - 11:22
   **   ~~~   ** The solution for one or more of the Air Loop HVAC systems did not appear to converge
   **   ~~~   ** Air System Named = CENTRAL SYSTEM did not converge for mass flow rate
   **   ~~~   ** Check values should be zero. Most Recent values listed first.
   **   ~~~   ** Demand-to-Supply interface mass flow rate check value iteration history trace: 7.312348E-002,7.312348E-002,7.312348E-002,7.312348E-002,7.312348E-002,7.312348E-002,7.312348E-002,7.312348E-002,7.312348E-002,7.312348E-002,
   **   ~~~   ** Supply-to-demand interface deck 1 mass flow rate check value iteration history trace: 7.312348E-002,7.312348E-002,7.312348E-002,7.312348E-002,7.312348E-002,7.312348E-002,7.312348E-002,7.312348E-002,7.312348E-002,7.312348E-002,
   **   ~~~   ** Air System Named = CENTRAL SYSTEM did not converge for energy
   **   ~~~   ** Check values should be zero. Most Recent values listed first.
   **   ~~~   ** Demand-to-Supply interface energy check value iteration history trace: 1449.076178,1449.076178,1449.076178,1449.076178,1449.076178,1449.076178,1449.076178,1449.076178,1449.076178,1449.076178,
   **   ~~~   ** Supply-to-demand interface deck 1 energy check value iteration history trace: 2503.635316,2503.635316,2503.635316,2503.635316,2503.635316,2503.635315,2503.635315,2503.635315,2503.635315,2503.635315,
   ** Warning ** SimHVAC: Maximum iterations (20) exceeded for all HVAC loops, at ANNUAL, 03/30 19:40 - 19:45
   **   ~~~   ** The solution for one or more of the Air Loop HVAC systems did not appear to converge
   **   ~~~   ** Air System Named = CENTRAL SYSTEM did not converge for mass flow rate
   **   ~~~   ** Check values should be zero. Most Recent values listed first.
   **   ~~~   ** Demand-to-Supply interface mass flow rate check value iteration history trace: 8.855676E-002,8.855676E-002,8.855676E-002,8.855676E-002,8.855676E-002,8.855676E-002,8.855676E-002,8.855676E-002,8.855676E-002,8.855676E-002,
   **   ~~~   ** Supply-to-demand interface deck 1 mass flow rate check value iteration history trace: 8.855676E-002,8.855676E-002,8.855676E-002,8.855676E-002,8.855676E-002,8.855676E-002,8.855676E-002,8.855676E-002,8.855676E-002,8.855676E-002,
   **   ~~~   ** Air System Named = CENTRAL SYSTEM did not converge for energy
   **   ~~~   ** Check values should be zero. Most Recent values listed first.
   **   ~~~   ** Demand-to-Supply interface energy check value iteration history trace: 1748.561739,1748.561739,1748.561739,1748.561738,1748.561738,1748.561738,1748.561738,1748.561738,1748.561738,1748.561738,
   **   ~~~   ** Supply-to-demand interface deck 1 energy check value iteration history trace: 2697.121447,2697.121447,2697.121446,2697.121446,2697.121446,2697.121446,2697.121446,2697.121446,2697.121445,2697.121445,
   ** Warning ** SimHVAC: Maximum iterations (20) exceeded for all HVAC loops, at ANNUAL, 04/12 08:25 - 08:26
   **   ~~~   ** The solution for one or more of the Air Loop HVAC systems did not appear to converge
   **   ~~~   ** Air System Named = CENTRAL SYSTEM did not converge for mass flow rate
   **   ~~~   ** Check values should be zero. Most Recent values listed first.
   **   ~~~   ** Demand-to-Supply interface mass flow rate check value iteration history trace: 7.034312E-002,7.034312E-002,7.034312E-002,7.034312E-002,7.034312E-002,7.034312E-002,7.034312E-002,7.034312E-002,7.034312E-002,7.034312E-002,
   **   ~~~   ** Supply-to-demand interface deck 1 mass flow rate check value iteration history trace: 7.034312E-002,7.034312E-002,7.034312E-002,7.034312E-002,7.034312E-002,7.034312E-002,7.034312E-002,7.034312E-002,7.034312E-002,7.034312E-002,
   **   ~~~   ** Air System Named = CENTRAL SYSTEM did not converge for energy
   **   ~~~   ** Check values should be zero. Most Recent values listed first.
   **   ~~~   ** Demand-to-Supply interface energy check value iteration history trace: 1391.758546,1391.758546,1391.758546,1391.758546,1391.758545,1391.758545,1391.758545,1391.758545,1391.758545,1391.758545,
   **   ~~~   ** Supply-to-demand interface deck 1 energy check value iteration history trace: 2481.254016,2481.254016,2481.254016,2481.254016,2481.254016,2481.254016,2481.254016,2481.254016,2481.254016,2481.254016,
   ** Warning ** SimHVAC: Maximum iterations (20) exceeded for all HVAC loops, at ANNUAL, 04/13 03:00 - 03:15
   **   ~~~   ** The solution for one or more of the Air Loop HVAC systems did not appear to converge
   **   ~~~   ** Air System Named = CENTRAL SYSTEM did not converge for mass flow rate
   **   ~~~   ** Check values should be zero. Most Recent values listed first.
   **   ~~~   ** Demand-to-Supply interface mass flow rate check value iteration history trace: 6.028366E-002,6.028366E-002,6.028366E-002,6.028366E-002,6.028366E-002,6.028366E-002,6.028366E-002,6.028366E-002,6.028366E-002,6.028366E-002,
   **   ~~~   ** Supply-to-demand interface deck 1 mass flow rate check value iteration history trace: 6.028366E-002,6.028366E-002,6.028366E-002,6.028366E-002,6.028366E-002,6.028366E-002,6.028366E-002,6.028366E-002,6.028366E-002,6.028366E-002,
   **   ~~~   ** Air System Named = CENTRAL SYSTEM did not converge for energy
   **   ~~~   ** Check values should be zero. Most Recent values listed first.
   **   ~~~   ** Demand-to-Supply interface energy check value iteration history trace: 1121.625392,1121.625392,1121.625392,1121.625392,1121.625392,1121.625392,1121.625392,1121.625392,1121.625392,1121.625392,
   **   ~~~   ** Supply-to-demand interface deck 1 energy check value iteration history trace: 1941.713811,1941.713811,1941.713811,1941.713811,1941.713811,1941.713811,1941.713811,1941.713811,1941.713810,1941.713810,
   ** Warning ** SimHVAC: Maximum iterations (20) exceeded for all HVAC loops, at ANNUAL, 04/23 07:45 - 07:52
   **   ~~~   ** The solution for one or more of the Air Loop HVAC systems did not appear to converge
   **   ~~~   ** Air System Named = CENTRAL SYSTEM did not converge for mass flow rate
   **   ~~~   ** Check values should be zero. Most Recent values listed first.
   **   ~~~   ** Demand-to-Supply interface mass flow rate check value iteration history trace: 5.404108E-002,5.404108E-002,5.404108E-002,5.404108E-002,5.404108E-002,5.404108E-002,5.404108E-002,5.404108E-002,5.404108E-002,5.404108E-002,
   **   ~~~   ** Supply-to-demand interface deck 1 mass flow rate check value iteration history trace: 5.404108E-002,5.404108E-002,5.404108E-002,5.404108E-002,5.404108E-002,5.404108E-002,5.404108E-002,5.404108E-002,5.404108E-002,5.404108E-002,
   **   ~~~   ** Air System Named = CENTRAL SYSTEM did not converge for energy
   **   ~~~   ** Check values should be zero. Most Recent values listed first.
   **   ~~~   ** Demand-to-Supply interface energy check value iteration history trace: 1066.462623,1066.462623,1066.462623,1066.462623,1066.462623,1066.462623,1066.462623,1066.462623,1066.462623,1066.462623,
   **   ~~~   ** Supply-to-demand interface deck 1 energy check value iteration history trace: 1850.225041,1850.225041,1850.225040,1850.225040,1850.225040,1850.225040,1850.225040,1850.225040,1850.225040,1850.225040,
   ** Warning ** SimHVAC: Maximum iterations (20) exceeded for all HVAC loops, at ANNUAL, 04/25 10:45 - 11:00
   **   ~~~   ** The solution for one or more of the Air Loop HVAC systems did not appear to converge
   **   ~~~   ** Air System Named = CENTRAL SYSTEM did not converge for mass flow rate
   **   ~~~   ** Check values should be zero. Most Recent values listed first.
   **   ~~~   ** Demand-to-Supply interface mass flow rate check value iteration history trace: 6.352732E-002,6.352732E-002,6.352732E-002,6.352732E-002,6.352732E-002,6.352732E-002,6.352732E-002,6.352732E-002,6.352732E-002,6.352732E-002,
   **   ~~~   ** Supply-to-demand interface deck 1 mass flow rate check value iteration history trace: 6.352732E-002,6.352732E-002,6.352732E-002,6.352732E-002,6.352732E-002,6.352732E-002,6.352732E-002,6.352732E-002,6.352732E-002,6.352732E-002,
   **   ~~~   ** Air System Named = CENTRAL SYSTEM did not converge for energy
   **   ~~~   ** Check values should be zero. Most Recent values listed first.
   **   ~~~   ** Demand-to-Supply interface energy check value iteration history trace: 1258.881647,1258.881647,1258.881647,1258.881647,1258.881647,1258.881647,1258.881647,1258.881647,1258.881647,1258.881647,
   **   ~~~   ** Supply-to-demand interface deck 1 energy check value iteration history trace: 2194.330231,2194.330231,2194.330231,2194.330231,2194.330231,2194.330231,2194.330231,2194.330231,2194.330231,2194.330230,
   ** Warning ** SimHVAC: Maximum iterations (20) exceeded for all HVAC loops, at ANNUAL, 04/26 03:45 - 04:00
   **   ~~~   ** The solution for one or more of the Air Loop HVAC systems did not appear to converge
   **   ~~~   ** Air System Named = CENTRAL SYSTEM did not converge for mass flow rate
   **   ~~~   ** Check values should be zero. Most Recent values listed first.
   **   ~~~   ** Demand-to-Supply interface mass flow rate check value iteration history trace: 6.270929E-002,6.270929E-002,6.270929E-002,6.270929E-002,6.270929E-002,6.270929E-002,6.270929E-002,6.270929E-002,6.270929E-002,6.270929E-002,
   **   ~~~   ** Supply-to-demand interface deck 1 mass flow rate check value iteration history trace: 6.270929E-002,6.270929E-002,6.270929E-002,6.270929E-002,6.270929E-002,6.270929E-002,6.270929E-002,6.270929E-002,6.270929E-002,6.270929E-002,
   **   ~~~   ** Air System Named = CENTRAL SYSTEM did not converge for energy
   **   ~~~   ** Check values should be zero. Most Recent values listed first.
   **   ~~~   ** Demand-to-Supply interface energy check value iteration history trace: 1172.278795,1172.278794,1172.278794,1172.278794,1172.278794,1172.278794,1172.278794,1172.278794,1172.278794,1172.278794,
   **   ~~~   ** Supply-to-demand interface deck 1 energy check value iteration history trace: 2036.238741,2036.238741,2036.238741,2036.238741,2036.238741,2036.238741,2036.238741,2036.238741,2036.238740,2036.238740,
   ** Warning ** SimHVAC: Maximum iterations (20) exceeded for all HVAC loops, at ANNUAL, 10/12 12:00 - 12:15
   **   ~~~   ** The solution for one or more of the Air Loop HVAC systems did not appear to converge
   **   ~~~   ** Air System Named = CENTRAL SYSTEM did not converge for mass flow rate
   **   ~~~   ** Check values should be zero. Most Recent values listed first.
   **   ~~~   ** Demand-to-Supply interface mass flow rate check value iteration history trace: 9.800195E-002,9.800195E-002,9.800195E-002,9.800195E-002,9.800195E-002,9.800195E-002,9.800195E-002,9.800195E-002,9.800195E-002,9.800195E-002,
   **   ~~~   ** Supply-to-demand interface deck 1 mass flow rate check value iteration history trace: 9.800195E-002,9.800195E-002,9.800195E-002,9.800195E-002,9.800195E-002,9.800195E-002,9.800195E-002,9.800195E-002,9.800195E-002,9.800195E-002,
   **   ~~~   ** Air System Named = CENTRAL SYSTEM did not converge for energy
   **   ~~~   ** Check values should be zero. Most Recent values listed first.
   **   ~~~   ** Demand-to-Supply interface energy check value iteration history trace: 2341.786667,2341.786667,2341.786667,2341.786668,2341.786668,2341.786668,2341.786668,2341.786668,2341.786668,2341.786669,
   **   ~~~   ** Supply-to-demand interface deck 1 energy check value iteration history trace: 1122.760157,1122.760157,1122.760157,1122.760157,1122.760157,1122.760157,1122.760157,1122.760157,1122.760158,1122.760158,
   ** Warning ** SimHVAC: Maximum iterations (20) exceeded for all HVAC loops, at ANNUAL, 10/14 12:02 - 12:05
   **   ~~~   ** The solution for one or more of the Air Loop HVAC systems did not appear to converge
   **   ~~~   ** Air System Named = CENTRAL SYSTEM did not converge for mass flow rate
   **   ~~~   ** Check values should be zero. Most Recent values listed first.
   **   ~~~   ** Demand-to-Supply interface mass flow rate check value iteration history trace: 0.214722,0.214722,0.214722,0.214722,0.214722,0.214722,0.214722,0.214722,0.214722,0.214722,
   **   ~~~   ** Supply-to-demand interface deck 1 mass flow rate check value iteration history trace: 0.214722,0.214722,0.214722,0.214722,0.214722,0.214722,0.214722,0.214722,0.214722,0.214722,
   **   ~~~   ** Air System Named = CENTRAL SYSTEM did not converge for energy
   **   ~~~   ** Check values should be zero. Most Recent values listed first.
   **   ~~~   ** Demand-to-Supply interface energy check value iteration history trace: 5095.880469,5095.880470,5095.880471,5095.880472,5095.880473,5095.880474,5095.880474,5095.880475,5095.880476,5095.880477,
   **   ~~~   ** Supply-to-demand interface deck 1 energy check value iteration history trace: 2397.812117,2397.812117,2397.812118,2397.812118,2397.812118,2397.812119,2397.812119,2397.812120,2397.812120,2397.812120,
   ************* Simulation Error Summary *************
   ** Warning ** The following Report Variables were requested but not generated -- check.rdd file
   **   ~~~   ** Either the IDF did not contain these elements, the variable name is misspelled,
   **   ~~~   ** or the requested variable is an advanced output which requires Output : Diagnostics, DisplayAdvancedReportVariables;
   ************* Key=*, VarName=BASEBOARD TOTAL HEATING ENERGY, Frequency=
   ************* Key=*, VarName=WATER HEATER NATURALGAS ENERGY, Frequency=
   ************* Key=*, VarName=COOLING COIL TOTAL HEATING ENERGY, Frequency=
   ************* There are 34 unused schedules in input.
   ************* There are 388 unused week schedules in input.
   ************* There are 397 unused day schedules in input.
   ************* Use Output:Diagnostics,DisplayUnusedSchedules; to see them.
   *************
   ************* ===== Recurring Error Summary =====
   ************* The following recurring error messages occurred.
   *************
   *************  ** Warning ** "TOTAL HOT WATER LOAD" - Target water temperature should be less than or equal to the hot water temperature error continues...
   *************  **   ~~~   **   This error occurred 96213 total times;
   *************  **   ~~~   **   during Warmup 0 times;
   *************  **   ~~~   **   during Sizing 0 times.
   *************  **   ~~~   **   Max=9.592127  Min=1.358252E-003
   *************
   *************  ** Warning ** Temperature out of range [-100. to 200.] (PsyPsatFnTemp)
   *************  **   ~~~   **   This error occurred 2 total times;
   *************  **   ~~~   **   during Warmup 0 times;
   *************  **   ~~~   **   during Sizing 0 times.
   *************  **   ~~~   **   Max=-127.095985 C  Min=-238.311241 C
   *************
   *************  ** Warning ** SimHVAC: Exceeding Maximum iterations for all HVAC loops, during ANNUAL continues
   *************  **   ~~~   **   This error occurred 3 total times;
   *************  **   ~~~   **   during Warmup 0 times;
   *************  **   ~~~   **   during Sizing 0 times.
   *************
   *************
   ************* ===== Final Error Summary =====
   ************* The following error categories occurred.  Consider correcting or noting.
   ************* Loads Initialization did not Converge
   ************* ..1) very high thermal mass such as very thick concrete (solution: increase max number of warmup
   ************* ..   days in the BUILDING object);
   ************* ..2) moderate mass and inadequate space conditioning such that the building keeps getting warmer
   ************* ..   and warmer on successive days (solution: add HVAC, check building thermal properties,
   ************* ..   check if infiltration is included, make sure HVAC properly controlled);
   ************* ..3) a soil layer modeled below the concrete slab - (solution remove this layer and read about
   ************* ..   ground temperatures in the Auxiliary Programs document).
   ************* ..4) unreasonable (too small) limits in the BUILDING object for temperature (.4 default) or
   ************* ..   loads tolerances (.04 default)
   ************* Nominally Unused Constructions
   ************* ..The nominally unused constructions warning is provided to alert you to potential conditions that can cause
   ************* ..extra time during simulation. Each construction is calculated by the algorithm indicated in the HeatBalanceAlgorithm
   ************* ..object. You may remove the constructions indicated (when you use the DisplayExtraWarnings option).
   *************
   ************* EnergyPlus Warmup Error Summary. During Warmup: 1 Warning; 2 Severe Errors.
   ************* EnergyPlus Sizing Error Summary. During Sizing: 4 Warning; 0 Severe Errors.
   ************* EnergyPlus Completed Successfully-- 96249 Warning; 2 Severe Errors; Elapsed Time=00hr 01min 35.08sec
