Program Version,EnergyPlus, Version 22.2.0-c249759bad, YMD=2023.09.01 19:04,
   ************* Beginning Zone Sizing Calculations
   ** Warning ** ProcessScheduleInput: Schedule:Constant="ALWAYS ON DISCRETE", Schedule Type Limits Name="ONOFF" not found -- will not be validated
   ** Warning ** Foundation:Kiva="KIVA FOUNDATION", no Interior Horizontal Insulation Material Name defined
   **   ~~~   ** Interior Horizontal Insulation Depth will not be used.
   ** Warning ** CheckUsedConstructions: There are 15 nominally unused constructions in input.
   **   ~~~   ** Each Unused construction is shown.
   ************* Construction=INTERIOR FLOOR
   ************* Construction=INTERIOR WINDOW
   ************* Construction=EXTERIOR DOOR
   ************* Construction=INTERIOR DOOR
   ************* Construction=GABLE CONSTRUCTION
   ************* Construction=CRAWL_FLOOR
   ************* Construction=INSULATED PIPE
   ************* Construction=PLAIN PIPE
   ************* Construction=TDD PIPE
   ************* Construction=TDD DOME
   ************* Construction=TDD DIFFUSER
   ************* Construction=CRAWL WALL
   ************* Construction=CEILING-FLOOR-LAYER
   ************* Construction=SLAB CONSTRUCTION W FULL R10 INSULATION
   ************* Construction=SLAB CONSTRUCTION W FULL R5 INSULATION
   ** Warning ** GetDXCoils: Coil:Heating:DX:SingleSpeed="DX_HEATING_COIL" curve values
   **   ~~~   ** ... Defrost Energy Input Ratio Function of Temperature Curve Name = DEFROSTEIR output is not equal to 1.0 (+ or - 10%) at rated conditions.
   **   ~~~   ** ... Curve output at rated conditions = 0.152
   ************* Beginning System Sizing Calculations
   ************* Beginning Plant Sizing Calculations
   ** Warning ** SizeDXCoil Coil:Cooling:DX:SingleSpeed DX_COOLING_COIL
   **   ~~~   ** ...Gross Rated Total Cooling Capacity [W] will be limited by the maximum rated volume flow per rated total capacity ratio.
   **   ~~~   ** ...DX coil volume flow rate ( m3/s ) = 0.468679
   **   ~~~   ** ...Requested capacity ( W ) = 5576.878
   **   ~~~   ** ...Requested flow/capacity ratio ( m3/s/W ) = 8.403E-005
   **   ~~~   ** ...Maximum flow/capacity ratio ( m3/s/W ) = 6.041E-005
   **   ~~~   ** ...Adjusted capacity ( W ) = 7758.304
   ** Warning ** Coil:WaterHeating:AirToWaterHeatPump:Wrapped "HEAT PUMP WATER HEATER EVAPORATOR": Rated air volume flow rate per watt of rated total water heating capacity is out of range
   **   ~~~   ** Min Rated Vol Flow Per Watt=[4.027E-005], Rated Vol Flow Per Watt=[1.510E-004], Max Rated Vol Flow Per Watt=[8.056E-005]. See Input-Output Reference Manual for valid range.
   ************* SizeFan: : Potential issue with equipment sizing for Fan:OnOff HEAT PUMP WATER HEATER FAN
   **   ~~~   ** User-Specified Maximum Flow Rate [m3/s] = 0.22653
   **   ~~~   ** differs from Design Size Maximum Flow Rate [m3/s] = 7.55250E-002
   **   ~~~   ** This may, or may not, indicate mismatched component sizes.
   **   ~~~   ** Verify that the value entered is intended and is consistent with other components.
   ** Warning ** Water heater = WATER HEATER TANK:  Recovery Efficiency and Energy Factor could not be calculated during the test for standard ratings
   **   ~~~   ** Setpoint was never recovered and/or heater never turned on
   ** Warning ** Check input. Pump nominal power or motor efficiency is set to 0, for pump=MAINS PRESSURE
   ** Warning ** Output:Meter: invalid Key Name="ELECTRIC_RANGE:INTERIOREQUIPMENT:ELECTRICITY" - not found.
   ** Warning ** Output:Meter: invalid Key Name="ELECTRIC_DRYER:INTERIOREQUIPMENT:ELECTRICITY" - not found.
   ** Warning ** Output:Meter: invalid Key Name="HEATRECOVERY:ELECTRICITY" - not found.
   ** Warning ** Output:Meter: invalid Key Name="HEATING:NATURALGAS" - not found.
   ** Warning ** Output:Meter: invalid Key Name="WATERSYSTEMS:NATURALGAS" - not found.
   ** Warning ** Output:Meter: invalid Key Name="PROPANE:FACILITY" - not found.
   ** Warning ** Output:Meter: invalid Key Name="HEATING:PROPANE" - not found.
   ************* Testing Individual Branch Integrity
   ************* All Branches passed integrity testing
   ************* Testing Individual Supply Air Path Integrity
   ************* All Supply Air Paths passed integrity testing
   ************* Testing Individual Return Air Path Integrity
   ************* All Return Air Paths passed integrity testing
   ************* No node connection errors were found.
   ************* Beginning Simulation
   ** Warning ** AirflowNetwork::Solver::validate_distribution: Heat pump water heater is simulated along with an AirflowNetwork but is not included in the AirflowNetwork.
   ** Warning ** CalcEquipmentFlowRates: "TOTAL HOT WATER LOAD" - Target water temperature is greater than the hot water temperature by (3.19 C)
   **   ~~~   **  Environment=EXTREME_WINTER, at Simulation time=01/01 03:45 - 04:00
   **   ~~~   ** ...target water temperature     = 53.33 C
   **   ~~~   ** ...hot water temperature        = 50.14 C
   **   ~~~   ** ...Target water temperature should be less than or equal to the hot water temperature. Verify temperature setpoints and schedules.
   ** Warning ** SimHVAC: Maximum iterations (20) exceeded for all HVAC loops, at ANNUAL, 03/12 13:30 - 13:45
   **   ~~~   ** The solution for one or more of the Air Loop HVAC systems did not appear to converge
   **   ~~~   ** Air System Named = CENTRAL SYSTEM did not converge for mass flow rate
   **   ~~~   ** Check values should be zero. Most Recent values listed first.
   **   ~~~   ** Demand-to-Supply interface mass flow rate check value iteration history trace: 7.551329E-002,7.551329E-002,7.551329E-002,7.551329E-002,7.551329E-002,7.551329E-002,7.551329E-002,7.551329E-002,7.551329E-002,7.551329E-002,
   **   ~~~   ** Supply-to-demand interface deck 1 mass flow rate check value iteration history trace: 7.551329E-002,7.551329E-002,7.551329E-002,7.551329E-002,7.551329E-002,7.551329E-002,7.551329E-002,7.551329E-002,7.551329E-002,7.551329E-002,
   **   ~~~   ** Air System Named = CENTRAL SYSTEM did not converge for energy
   **   ~~~   ** Check values should be zero. Most Recent values listed first.
   **   ~~~   ** Demand-to-Supply interface energy check value iteration history trace: 1496.490315,1496.490315,1496.490315,1496.490315,1496.490314,1496.490314,1496.490314,1496.490314,1496.490314,1496.490314,
   **   ~~~   ** Supply-to-demand interface deck 1 energy check value iteration history trace: 2366.140825,2366.140824,2366.140824,2366.140824,2366.140824,2366.140824,2366.140824,2366.140824,2366.140824,2366.140823,
   ** Warning ** SimHVAC: Maximum iterations (20) exceeded for all HVAC loops, at ANNUAL, 03/15 10:15 - 10:30
   **   ~~~   ** The solution for one or more of the Air Loop HVAC systems did not appear to converge
   **   ~~~   ** Air System Named = CENTRAL SYSTEM did not converge for mass flow rate
   **   ~~~   ** Check values should be zero. Most Recent values listed first.
   **   ~~~   ** Demand-to-Supply interface mass flow rate check value iteration history trace: 6.215996E-002,6.215996E-002,6.215996E-002,6.215996E-002,6.215996E-002,6.215996E-002,6.215996E-002,6.215996E-002,6.215996E-002,6.215996E-002,
   **   ~~~   ** Supply-to-demand interface deck 1 mass flow rate check value iteration history trace: 6.215996E-002,6.215996E-002,6.215996E-002,6.215996E-002,6.215996E-002,6.215996E-002,6.215996E-002,6.215996E-002,6.215996E-002,6.215996E-002,
   **   ~~~   ** Air System Named = CENTRAL SYSTEM did not converge for energy
   **   ~~~   ** Check values should be zero. Most Recent values listed first.
   **   ~~~   ** Demand-to-Supply interface energy check value iteration history trace: 1231.853075,1231.853075,1231.853075,1231.853075,1231.853075,1231.853075,1231.853075,1231.853075,1231.853075,1231.853075,
   **   ~~~   ** Supply-to-demand interface deck 1 energy check value iteration history trace: 2030.222357,2030.222357,2030.222357,2030.222357,2030.222357,2030.222357,2030.222357,2030.222357,2030.222357,2030.222357,
   ** Warning ** SimHVAC: Maximum iterations (20) exceeded for all HVAC loops, at ANNUAL, 04/04 12:38 - 12:45
   **   ~~~   ** The solution for one or more of the Air Loop HVAC systems did not appear to converge
   **   ~~~   ** Air System Named = CENTRAL SYSTEM did not converge for mass flow rate
   **   ~~~   ** Check values should be zero. Most Recent values listed first.
   **   ~~~   ** Demand-to-Supply interface mass flow rate check value iteration history trace: 4.313572E-002,4.313572E-002,4.313572E-002,4.313572E-002,4.313572E-002,4.313572E-002,4.313572E-002,4.313572E-002,4.313572E-002,4.313572E-002,
   **   ~~~   ** Supply-to-demand interface deck 1 mass flow rate check value iteration history trace: 4.313572E-002,4.313572E-002,4.313572E-002,4.313572E-002,4.313572E-002,4.313572E-002,4.313572E-002,4.313572E-002,4.313572E-002,4.313572E-002,
   **   ~~~   ** Air System Named = CENTRAL SYSTEM did not converge for energy
   **   ~~~   ** Check values should be zero. Most Recent values listed first.
   **   ~~~   ** Demand-to-Supply interface energy check value iteration history trace: 841.673674,841.673673,841.673673,841.673673,841.673673,841.673673,841.673673,841.673673,841.673673,841.673673,
   **   ~~~   ** Supply-to-demand interface deck 1 energy check value iteration history trace: 1616.915060,1616.915060,1616.915060,1616.915060,1616.915060,1616.915060,1616.915060,1616.915060,1616.915060,1616.915060,
   ** Warning ** SimHVAC: Maximum iterations (20) exceeded for all HVAC loops, at ANNUAL, 04/15 11:32 - 11:34
   **   ~~~   ** The solution for one or more of the Air Loop HVAC systems did not appear to converge
   **   ~~~   ** Air System Named = CENTRAL SYSTEM did not converge for mass flow rate
   **   ~~~   ** Check values should be zero. Most Recent values listed first.
   **   ~~~   ** Demand-to-Supply interface mass flow rate check value iteration history trace: 4.576211E-002,4.576211E-002,4.576211E-002,4.576211E-002,4.576211E-002,4.576211E-002,4.576211E-002,4.576211E-002,4.576211E-002,4.576211E-002,
   **   ~~~   ** Supply-to-demand interface deck 1 mass flow rate check value iteration history trace: 4.576211E-002,4.576211E-002,4.576211E-002,4.576211E-002,4.576211E-002,4.576211E-002,4.576211E-002,4.576211E-002,4.576211E-002,4.576211E-002,
   **   ~~~   ** Air System Named = CENTRAL SYSTEM did not converge for energy
   **   ~~~   ** Check values should be zero. Most Recent values listed first.
   **   ~~~   ** Demand-to-Supply interface energy check value iteration history trace: 903.680978,903.680978,903.680978,903.680978,903.680978,903.680978,903.680978,903.680978,903.680978,903.680978,
   **   ~~~   ** Supply-to-demand interface deck 1 energy check value iteration history trace: 1776.779357,1776.779357,1776.779357,1776.779357,1776.779357,1776.779357,1776.779357,1776.779357,1776.779357,1776.779357,
   ** Warning ** SimHVAC: Maximum iterations (20) exceeded for all HVAC loops, at ANNUAL, 04/22 10:30 - 10:45
   **   ~~~   ** The solution for one or more of the Air Loop HVAC systems did not appear to converge
   **   ~~~   ** Air System Named = CENTRAL SYSTEM did not converge for mass flow rate
   **   ~~~   ** Check values should be zero. Most Recent values listed first.
   **   ~~~   ** Demand-to-Supply interface mass flow rate check value iteration history trace: 5.614148E-002,5.614148E-002,5.614148E-002,5.614148E-002,5.614148E-002,5.614148E-002,5.614148E-002,5.614148E-002,5.614148E-002,5.614148E-002,
   **   ~~~   ** Supply-to-demand interface deck 1 mass flow rate check value iteration history trace: 5.614148E-002,5.614148E-002,5.614148E-002,5.614148E-002,5.614148E-002,5.614148E-002,5.614148E-002,5.614148E-002,5.614148E-002,5.614148E-002,
   **   ~~~   ** Air System Named = CENTRAL SYSTEM did not converge for energy
   **   ~~~   ** Check values should be zero. Most Recent values listed first.
   **   ~~~   ** Demand-to-Supply interface energy check value iteration history trace: 1112.581286,1112.581286,1112.581286,1112.581286,1112.581286,1112.581286,1112.581286,1112.581286,1112.581286,1112.581286,
   **   ~~~   ** Supply-to-demand interface deck 1 energy check value iteration history trace: 2055.395625,2055.395625,2055.395625,2055.395624,2055.395624,2055.395624,2055.395624,2055.395624,2055.395624,2055.395624,
   ** Warning ** SimHVAC: Maximum iterations (20) exceeded for all HVAC loops, at ANNUAL, 05/13 10:47 - 10:50
   **   ~~~   ** The solution for one or more of the Air Loop HVAC systems did not appear to converge
   **   ~~~   ** Air System Named = CENTRAL SYSTEM did not converge for mass flow rate
   **   ~~~   ** Check values should be zero. Most Recent values listed first.
   **   ~~~   ** Demand-to-Supply interface mass flow rate check value iteration history trace: 4.613320E-002,4.613320E-002,4.613320E-002,4.613320E-002,4.613320E-002,4.613320E-002,4.613320E-002,4.613320E-002,4.613320E-002,4.613320E-002,
   **   ~~~   ** Supply-to-demand interface deck 1 mass flow rate check value iteration history trace: 4.613320E-002,4.613320E-002,4.613320E-002,4.613320E-002,4.613320E-002,4.613320E-002,4.613320E-002,4.613320E-002,4.613320E-002,4.613320E-002,
   **   ~~~   ** Air System Named = CENTRAL SYSTEM did not converge for energy
   **   ~~~   ** Check values should be zero. Most Recent values listed first.
   **   ~~~   ** Demand-to-Supply interface energy check value iteration history trace: 909.901030,909.901030,909.901030,909.901030,909.901029,909.901029,909.901029,909.901029,909.901029,909.901029,
   **   ~~~   ** Supply-to-demand interface deck 1 energy check value iteration history trace: 1825.763103,1825.763103,1825.763103,1825.763103,1825.763103,1825.763102,1825.763102,1825.763102,1825.763102,1825.763101,
   **   ~~~   ** Node named ZONE INLET NODE shows oscillating temperatures across iterations with a repeated value of 39.385126
   **   ~~~   ** Node named ZONE INLET NODE temperature [C] iteration history trace (most recent first): 39.385126,39.385125,39.385125,39.385125,39.385125,39.385125,39.385124,39.385124,39.385124,39.385124,
   ** Warning ** SimHVAC: Maximum iterations (20) exceeded for all HVAC loops, at ANNUAL, 05/24 10:35 - 10:40
   **   ~~~   ** The solution for one or more of the Air Loop HVAC systems did not appear to converge
   **   ~~~   ** Air System Named = CENTRAL SYSTEM did not converge for mass flow rate
   **   ~~~   ** Check values should be zero. Most Recent values listed first.
   **   ~~~   ** Demand-to-Supply interface mass flow rate check value iteration history trace: 4.501884E-002,4.501884E-002,4.501884E-002,4.501884E-002,4.501884E-002,4.501884E-002,4.501884E-002,4.501884E-002,4.501884E-002,4.501884E-002,
   **   ~~~   ** Supply-to-demand interface deck 1 mass flow rate check value iteration history trace: 4.501884E-002,4.501884E-002,4.501884E-002,4.501884E-002,4.501884E-002,4.501884E-002,4.501884E-002,4.501884E-002,4.501884E-002,4.501884E-002,
   **   ~~~   ** Air System Named = CENTRAL SYSTEM did not converge for energy
   **   ~~~   ** Check values should be zero. Most Recent values listed first.
   **   ~~~   ** Demand-to-Supply interface energy check value iteration history trace: 886.627050,886.627050,886.627050,886.627050,886.627050,886.627050,886.627050,886.627050,886.627050,886.627050,
   **   ~~~   ** Supply-to-demand interface deck 1 energy check value iteration history trace: 1698.745874,1698.745874,1698.745874,1698.745874,1698.745874,1698.745874,1698.745874,1698.745874,1698.745874,1698.745874,
   ** Warning ** SimHVAC: Maximum iterations (20) exceeded for all HVAC loops, at ANNUAL, 06/02 08:30 - 08:32
   **   ~~~   ** The solution for one or more of the Air Loop HVAC systems did not appear to converge
   **   ~~~   ** Air System Named = CENTRAL SYSTEM did not converge for mass flow rate
   **   ~~~   ** Check values should be zero. Most Recent values listed first.
   **   ~~~   ** Demand-to-Supply interface mass flow rate check value iteration history trace: 5.107070E-002,5.107070E-002,5.107070E-002,5.107070E-002,5.107070E-002,5.107070E-002,5.107070E-002,5.107070E-002,5.107070E-002,5.107070E-002,
   **   ~~~   ** Supply-to-demand interface deck 1 mass flow rate check value iteration history trace: 5.107070E-002,5.107070E-002,5.107070E-002,5.107070E-002,5.107070E-002,5.107070E-002,5.107070E-002,5.107070E-002,5.107070E-002,5.107070E-002,
   **   ~~~   ** Air System Named = CENTRAL SYSTEM did not converge for energy
   **   ~~~   ** Check values should be zero. Most Recent values listed first.
   **   ~~~   ** Demand-to-Supply interface energy check value iteration history trace: 1011.422222,1011.422222,1011.422221,1011.422221,1011.422221,1011.422221,1011.422221,1011.422221,1011.422221,1011.422221,
   **   ~~~   ** Supply-to-demand interface deck 1 energy check value iteration history trace: 1920.749026,1920.749026,1920.749026,1920.749026,1920.749026,1920.749026,1920.749026,1920.749026,1920.749026,1920.749026,
   ** Warning ** SimHVAC: Maximum iterations (20) exceeded for all HVAC loops, at ANNUAL, 06/05 08:45 - 08:49
   **   ~~~   ** The solution for one or more of the Air Loop HVAC systems did not appear to converge
   **   ~~~   ** Air System Named = CENTRAL SYSTEM did not converge for mass flow rate
   **   ~~~   ** Check values should be zero. Most Recent values listed first.
   **   ~~~   ** Demand-to-Supply interface mass flow rate check value iteration history trace: 4.752105E-002,4.752105E-002,4.752105E-002,4.752105E-002,4.752105E-002,4.752105E-002,4.752105E-002,4.752105E-002,4.752105E-002,4.752105E-002,
   **   ~~~   ** Supply-to-demand interface deck 1 mass flow rate check value iteration history trace: 4.752105E-002,4.752105E-002,4.752105E-002,4.752105E-002,4.752105E-002,4.752105E-002,4.752105E-002,4.752105E-002,4.752105E-002,4.752105E-002,
   **   ~~~   ** Air System Named = CENTRAL SYSTEM did not converge for energy
   **   ~~~   ** Check values should be zero. Most Recent values listed first.
   **   ~~~   ** Demand-to-Supply interface energy check value iteration history trace: 941.701732,941.701732,941.701732,941.701732,941.701732,941.701732,941.701732,941.701732,941.701732,941.701732,
   **   ~~~   ** Supply-to-demand interface deck 1 energy check value iteration history trace: 1777.314000,1777.314000,1777.314000,1777.314000,1777.314000,1777.314000,1777.314000,1777.313999,1777.313999,1777.313999,
   ** Warning ** SimHVAC: Maximum iterations (20) exceeded for all HVAC loops, at ANNUAL, 06/10 07:16 - 07:18
   **   ~~~   ** The solution for one or more of the Air Loop HVAC systems did not appear to converge
   **   ~~~   ** Air System Named = CENTRAL SYSTEM did not converge for mass flow rate
   **   ~~~   ** Check values should be zero. Most Recent values listed first.
   **   ~~~   ** Demand-to-Supply interface mass flow rate check value iteration history trace: 5.658675E-002,5.658675E-002,5.658675E-002,5.658675E-002,5.658675E-002,5.658675E-002,5.658675E-002,5.658675E-002,5.658675E-002,5.658675E-002,
   **   ~~~   ** Supply-to-demand interface deck 1 mass flow rate check value iteration history trace: 5.658675E-002,5.658675E-002,5.658675E-002,5.658675E-002,5.658675E-002,5.658675E-002,5.658675E-002,5.658675E-002,5.658675E-002,5.658675E-002,
   **   ~~~   ** Air System Named = CENTRAL SYSTEM did not converge for energy
   **   ~~~   ** Check values should be zero. Most Recent values listed first.
   **   ~~~   ** Demand-to-Supply interface energy check value iteration history trace: 1121.448861,1121.448861,1121.448861,1121.448860,1121.448860,1121.448860,1121.448860,1121.448860,1121.448860,1121.448860,
   **   ~~~   ** Supply-to-demand interface deck 1 energy check value iteration history trace: 1889.434504,1889.434504,1889.434504,1889.434504,1889.434504,1889.434504,1889.434504,1889.434504,1889.434503,1889.434503,
   ** Warning ** SimHVAC: Maximum iterations (20) exceeded for all HVAC loops, at ANNUAL, 07/07 08:19 - 08:21
   **   ~~~   ** The solution for one or more of the Air Loop HVAC systems did not appear to converge
   **   ~~~   ** Air System Named = CENTRAL SYSTEM did not converge for mass flow rate
   **   ~~~   ** Check values should be zero. Most Recent values listed first.
   **   ~~~   ** Demand-to-Supply interface mass flow rate check value iteration history trace: 0.345521,0.345521,0.345521,0.345521,0.345521,0.345521,0.345521,0.345521,0.345521,0.345521,
   **   ~~~   ** Supply-to-demand interface deck 1 mass flow rate check value iteration history trace: 0.345521,0.345521,0.345521,0.345521,0.345521,0.345521,0.345521,0.345521,0.345521,0.345521,
   **   ~~~   ** Air System Named = CENTRAL SYSTEM did not converge for energy
   **   ~~~   ** Check values should be zero. Most Recent values listed first.
   **   ~~~   ** Demand-to-Supply interface energy check value iteration history trace: 8239.330543,8239.330544,8239.330545,8239.330546,8239.330547,8239.330548,8239.330549,8239.330550,8239.330550,8239.330551,
   **   ~~~   ** Supply-to-demand interface deck 1 energy check value iteration history trace: 2954.454632,2954.454633,2954.454633,2954.454633,2954.454633,2954.454634,2954.454634,2954.454634,2954.454635,2954.454635,
   ** Warning ** SimHVAC: Maximum iterations (20) exceeded for all HVAC loops, at ANNUAL, 07/07 08:58 - 09:00
   **   ~~~   ** The solution for one or more of the Air Loop HVAC systems did not appear to converge
   **   ~~~   ** Air System Named = CENTRAL SYSTEM did not converge for mass flow rate
   **   ~~~   ** Check values should be zero. Most Recent values listed first.
   **   ~~~   ** Demand-to-Supply interface mass flow rate check value iteration history trace: 0.169542,0.169542,0.169542,0.169542,0.169542,0.169542,0.169542,0.169542,0.169542,0.169542,
   **   ~~~   ** Supply-to-demand interface deck 1 mass flow rate check value iteration history trace: 0.169542,0.169542,0.169542,0.169542,0.169542,0.169542,0.169542,0.169542,0.169542,0.169542,
   **   ~~~   ** Air System Named = CENTRAL SYSTEM did not converge for energy
   **   ~~~   ** Check values should be zero. Most Recent values listed first.
   **   ~~~   ** Demand-to-Supply interface energy check value iteration history trace: 4022.025203,4022.025203,4022.025204,4022.025204,4022.025205,4022.025205,4022.025205,4022.025206,4022.025206,4022.025207,
   **   ~~~   ** Supply-to-demand interface deck 1 energy check value iteration history trace: 1433.909454,1433.909454,1433.909454,1433.909455,1433.909455,1433.909455,1433.909455,1433.909455,1433.909455,1433.909456,
   ** Warning ** SimHVAC: Maximum iterations (20) exceeded for all HVAC loops, at ANNUAL, 07/07 09:12 - 09:13
   **   ~~~   ** The solution for one or more of the Air Loop HVAC systems did not appear to converge
   **   ~~~   ** Air System Named = CENTRAL SYSTEM did not converge for mass flow rate
   **   ~~~   ** Check values should be zero. Most Recent values listed first.
   **   ~~~   ** Demand-to-Supply interface mass flow rate check value iteration history trace: 0.184359,0.184359,0.184359,0.184359,0.184359,0.184359,0.184359,0.184359,0.184359,0.184359,
   **   ~~~   ** Supply-to-demand interface deck 1 mass flow rate check value iteration history trace: 0.184359,0.184359,0.184359,0.184359,0.184359,0.184359,0.184359,0.184359,0.184359,0.184359,
   **   ~~~   ** Air System Named = CENTRAL SYSTEM did not converge for energy
   **   ~~~   ** Check values should be zero. Most Recent values listed first.
   **   ~~~   ** Demand-to-Supply interface energy check value iteration history trace: 4372.490822,4372.490823,4372.490823,4372.490824,4372.490824,4372.490825,4372.490825,4372.490826,4372.490826,4372.490827,
   **   ~~~   ** Supply-to-demand interface deck 1 energy check value iteration history trace: 1556.077481,1556.077481,1556.077481,1556.077481,1556.077481,1556.077482,1556.077482,1556.077482,1556.077482,1556.077482,
   ** Warning ** SimHVAC: Maximum iterations (20) exceeded for all HVAC loops, at ANNUAL, 07/07 22:35 - 22:40
   **   ~~~   ** The solution for one or more of the Air Loop HVAC systems did not appear to converge
   **   ~~~   ** Air System Named = CENTRAL SYSTEM did not converge for mass flow rate
   **   ~~~   ** Check values should be zero. Most Recent values listed first.
   **   ~~~   ** Demand-to-Supply interface mass flow rate check value iteration history trace: 0.105522,0.105522,0.105522,0.105522,0.105522,0.105522,0.105522,0.105522,0.105522,0.105522,
   **   ~~~   ** Supply-to-demand interface deck 1 mass flow rate check value iteration history trace: 0.105522,0.105522,0.105522,0.105522,0.105522,0.105522,0.105522,0.105522,0.105522,0.105522,
   **   ~~~   ** Air System Named = CENTRAL SYSTEM did not converge for energy
   **   ~~~   ** Check values should be zero. Most Recent values listed first.
   **   ~~~   ** Demand-to-Supply interface energy check value iteration history trace: 2616.748878,2616.748879,2616.748879,2616.748879,2616.748879,2616.748880,2616.748880,2616.748880,2616.748880,2616.748881,
   **   ~~~   ** Supply-to-demand interface deck 1 energy check value iteration history trace: 753.224161,753.224161,753.224161,753.224161,753.224162,753.224162,753.224162,753.224162,753.224162,753.224162,
   ************* Simulation Error Summary *************
   ** Warning ** The following Report Variables were requested but not generated -- check.rdd file
   **   ~~~   ** Either the IDF did not contain these elements, the variable name is misspelled,
   **   ~~~   ** or the requested variable is an advanced output which requires Output : Diagnostics, DisplayAdvancedReportVariables;
   ************* Key=*, VarName=BASEBOARD TOTAL HEATING ENERGY, Frequency=
   ************* Key=*, VarName=WATER HEATER NATURALGAS ENERGY, Frequency=
   ************* Key=*, VarName=COOLING COIL TOTAL HEATING ENERGY, Frequency=
   ************* There are 34 unused schedules in input.
   ************* There are 388 unused week schedules in input.
   ************* There are 396 unused day schedules in input.
   ************* Use Output:Diagnostics,DisplayUnusedSchedules; to see them.
   *************
   ************* ===== Recurring Error Summary =====
   ************* The following recurring error messages occurred.
   *************
   *************  ** Warning ** "TOTAL HOT WATER LOAD" - Target water temperature should be less than or equal to the hot water temperature error continues...
   *************  **   ~~~   **   This error occurred 63217 total times;
   *************  **   ~~~   **   during Warmup 0 times;
   *************  **   ~~~   **   during Sizing 0 times.
   *************  **   ~~~   **   Max=6.91947  Min=2.292554E-003
   *************
   *************  ** Warning ** SimHVAC: Exceeding Maximum iterations for all HVAC loops, during ANNUAL continues
   *************  **   ~~~   **   This error occurred 9 total times;
   *************  **   ~~~   **   during Warmup 0 times;
   *************  **   ~~~   **   during Sizing 0 times.
   *************
   *************
   ************* ===== Final Error Summary =====
   ************* The following error categories occurred.  Consider correcting or noting.
   ************* Nominally Unused Constructions
   ************* ..The nominally unused constructions warning is provided to alert you to potential conditions that can cause
   ************* ..extra time during simulation. Each construction is calculated by the algorithm indicated in the HeatBalanceAlgorithm
   ************* ..object. You may remove the constructions indicated (when you use the DisplayExtraWarnings option).
   *************
   ************* EnergyPlus Warmup Error Summary. During Warmup: 1 Warning; 0 Severe Errors.
   ************* EnergyPlus Sizing Error Summary. During Sizing: 4 Warning; 0 Severe Errors.
   ************* EnergyPlus Completed Successfully-- 63258 Warning; 0 Severe Errors; Elapsed Time=00hr 01min 34.82sec
