Program Version,EnergyPlus, Version 22.2.0-c249759bad, YMD=2023.09.01 19:45,
   ************* Beginning Zone Sizing Calculations
   ** Warning ** ProcessScheduleInput: Schedule:Constant="ALWAYS ON DISCRETE", Schedule Type Limits Name="ONOFF" not found -- will not be validated
   ** Warning ** Foundation:Kiva="KIVA FOUNDATION", no Interior Horizontal Insulation Material Name defined
   **   ~~~   ** Interior Horizontal Insulation Depth will not be used.
   ** Warning ** CheckUsedConstructions: There are 15 nominally unused constructions in input.
   **   ~~~   ** Each Unused construction is shown.
   ************* Construction=INTERIOR FLOOR
   ************* Construction=INTERIOR WINDOW
   ************* Construction=EXTERIOR DOOR
   ************* Construction=INTERIOR DOOR
   ************* Construction=GABLE CONSTRUCTION
   ************* Construction=CRAWL_FLOOR
   ************* Construction=INSULATED PIPE
   ************* Construction=PLAIN PIPE
   ************* Construction=TDD PIPE
   ************* Construction=TDD DOME
   ************* Construction=TDD DIFFUSER
   ************* Construction=CRAWL WALL
   ************* Construction=CEILING-FLOOR-LAYER
   ************* Construction=SLAB CONSTRUCTION W FULL R10 INSULATION
   ************* Construction=SLAB CONSTRUCTION W FULL R5 INSULATION
   ** Warning ** GetDXCoils: Coil:Heating:DX:SingleSpeed="DX_HEATING_COIL" curve values
   **   ~~~   ** ... Defrost Energy Input Ratio Function of Temperature Curve Name = DEFROSTEIR output is not equal to 1.0 (+ or - 10%) at rated conditions.
   **   ~~~   ** ... Curve output at rated conditions = 0.152
   ************* Beginning System Sizing Calculations
   ************* Beginning Plant Sizing Calculations
   ** Warning ** SizeDXCoil Coil:Cooling:DX:SingleSpeed DX_COOLING_COIL
   **   ~~~   ** ...Gross Rated Total Cooling Capacity [W] will be limited by the maximum rated volume flow per rated total capacity ratio.
   **   ~~~   ** ...DX coil volume flow rate ( m3/s ) = 0.438019
   **   ~~~   ** ...Requested capacity ( W ) = 6953.507
   **   ~~~   ** ...Requested flow/capacity ratio ( m3/s/W ) = 6.299E-005
   **   ~~~   ** ...Maximum flow/capacity ratio ( m3/s/W ) = 6.041E-005
   **   ~~~   ** ...Adjusted capacity ( W ) = 7250.774
   ** Warning ** Coil:WaterHeating:AirToWaterHeatPump:Wrapped "HEAT PUMP WATER HEATER EVAPORATOR": Rated air volume flow rate per watt of rated total water heating capacity is out of range
   **   ~~~   ** Min Rated Vol Flow Per Watt=[4.027E-005], Rated Vol Flow Per Watt=[1.510E-004], Max Rated Vol Flow Per Watt=[8.056E-005]. See Input-Output Reference Manual for valid range.
   ************* SizeFan: : Potential issue with equipment sizing for Fan:OnOff HEAT PUMP WATER HEATER FAN
   **   ~~~   ** User-Specified Maximum Flow Rate [m3/s] = 0.22653
   **   ~~~   ** differs from Design Size Maximum Flow Rate [m3/s] = 7.55250E-002
   **   ~~~   ** This may, or may not, indicate mismatched component sizes.
   **   ~~~   ** Verify that the value entered is intended and is consistent with other components.
   ** Warning ** Water heater = WATER HEATER TANK:  Recovery Efficiency and Energy Factor could not be calculated during the test for standard ratings
   **   ~~~   ** Setpoint was never recovered and/or heater never turned on
   ** Warning ** Check input. Pump nominal power or motor efficiency is set to 0, for pump=MAINS PRESSURE
   ** Warning ** Output:Meter: invalid Key Name="ELECTRIC_RANGE:INTERIOREQUIPMENT:ELECTRICITY" - not found.
   ** Warning ** Output:Meter: invalid Key Name="ELECTRIC_DRYER:INTERIOREQUIPMENT:ELECTRICITY" - not found.
   ** Warning ** Output:Meter: invalid Key Name="HEATRECOVERY:ELECTRICITY" - not found.
   ** Warning ** Output:Meter: invalid Key Name="HEATING:NATURALGAS" - not found.
   ** Warning ** Output:Meter: invalid Key Name="WATERSYSTEMS:NATURALGAS" - not found.
   ** Warning ** Output:Meter: invalid Key Name="PROPANE:FACILITY" - not found.
   ** Warning ** Output:Meter: invalid Key Name="HEATING:PROPANE" - not found.
   ************* Testing Individual Branch Integrity
   ************* All Branches passed integrity testing
   ************* Testing Individual Supply Air Path Integrity
   ************* All Supply Air Paths passed integrity testing
   ************* Testing Individual Return Air Path Integrity
   ************* All Return Air Paths passed integrity testing
   ************* No node connection errors were found.
   ************* Beginning Simulation
   ** Warning ** AirflowNetwork::Solver::validate_distribution: Heat pump water heater is simulated along with an AirflowNetwork but is not included in the AirflowNetwork.
   ** Warning ** CalcEquipmentFlowRates: "TOTAL HOT WATER LOAD" - Target water temperature is greater than the hot water temperature by (3.96 C)
   **   ~~~   **  Environment=EXTREME_WINTER, at Simulation time=01/06 06:00 - 06:15
   **   ~~~   ** ...target water temperature     = 53.33 C
   **   ~~~   ** ...hot water temperature        = 49.37 C
   **   ~~~   ** ...Target water temperature should be less than or equal to the hot water temperature. Verify temperature setpoints and schedules.
   ** Warning ** SimHVAC: Maximum iterations (20) exceeded for all HVAC loops, at EXTREME_SUMMER, 07/17 04:38 - 04:45
   **   ~~~   ** The solution for one or more of the Air Loop HVAC systems did not appear to converge
   **   ~~~   ** Air System Named = CENTRAL SYSTEM did not converge for mass flow rate
   **   ~~~   ** Check values should be zero. Most Recent values listed first.
   **   ~~~   ** Demand-to-Supply interface mass flow rate check value iteration history trace: 9.272702E-002,9.272702E-002,9.272702E-002,9.272702E-002,9.272702E-002,9.272702E-002,9.272702E-002,9.272702E-002,9.272702E-002,9.272702E-002,
   **   ~~~   ** Supply-to-demand interface deck 1 mass flow rate check value iteration history trace: 9.272702E-002,9.272702E-002,9.272702E-002,9.272702E-002,9.272702E-002,9.272702E-002,9.272702E-002,9.272702E-002,9.272702E-002,9.272702E-002,
   **   ~~~   ** Air System Named = CENTRAL SYSTEM did not converge for energy
   **   ~~~   ** Check values should be zero. Most Recent values listed first.
   **   ~~~   ** Demand-to-Supply interface energy check value iteration history trace: 2278.985069,2278.985070,2278.985071,2278.985072,2278.985073,2278.985073,2278.985074,2278.985075,2278.985076,2278.985077,
   **   ~~~   ** Supply-to-demand interface deck 1 energy check value iteration history trace: 1266.218175,1266.218176,1266.218176,1266.218177,1266.218177,1266.218178,1266.218178,1266.218179,1266.218179,1266.218180,
   ** Warning ** SimHVAC: Maximum iterations (20) exceeded for all HVAC loops, at ANNUAL, 01/01 18:08 - 18:15
   **   ~~~   ** The solution for one or more of the Air Loop HVAC systems did not appear to converge
   **   ~~~   ** Air System Named = CENTRAL SYSTEM did not converge for mass flow rate
   **   ~~~   ** Check values should be zero. Most Recent values listed first.
   **   ~~~   ** Demand-to-Supply interface mass flow rate check value iteration history trace: 0.100798,0.100798,0.100798,0.100798,0.100798,0.100798,0.100798,0.100798,0.100798,0.100798,
   **   ~~~   ** Supply-to-demand interface deck 1 mass flow rate check value iteration history trace: 0.100798,0.100798,0.100798,0.100798,0.100798,0.100798,0.100798,0.100798,0.100798,0.100798,
   **   ~~~   ** Air System Named = CENTRAL SYSTEM did not converge for energy
   **   ~~~   ** Check values should be zero. Most Recent values listed first.
   **   ~~~   ** Demand-to-Supply interface energy check value iteration history trace: 1996.319044,1996.319044,1996.319044,1996.319044,1996.319044,1996.319044,1996.319044,1996.319043,1996.319043,1996.319043,
   **   ~~~   ** Supply-to-demand interface deck 1 energy check value iteration history trace: 3079.904960,3079.904959,3079.904959,3079.904959,3079.904959,3079.904959,3079.904958,3079.904958,3079.904958,3079.904958,
   ** Warning ** SimHVAC: Maximum iterations (20) exceeded for all HVAC loops, at ANNUAL, 01/30 10:30 - 10:45
   **   ~~~   ** The solution for one or more of the Air Loop HVAC systems did not appear to converge
   **   ~~~   ** Air System Named = CENTRAL SYSTEM did not converge for mass flow rate
   **   ~~~   ** Check values should be zero. Most Recent values listed first.
   **   ~~~   ** Demand-to-Supply interface mass flow rate check value iteration history trace: 8.651600E-002,8.651600E-002,8.651600E-002,8.651600E-002,8.651600E-002,8.651600E-002,8.651600E-002,8.651600E-002,8.651600E-002,8.651600E-002,
   **   ~~~   ** Supply-to-demand interface deck 1 mass flow rate check value iteration history trace: 8.651600E-002,8.651600E-002,8.651600E-002,8.651600E-002,8.651600E-002,8.651600E-002,8.651600E-002,8.651600E-002,8.651600E-002,8.651600E-002,
   **   ~~~   ** Air System Named = CENTRAL SYSTEM did not converge for energy
   **   ~~~   ** Check values should be zero. Most Recent values listed first.
   **   ~~~   ** Demand-to-Supply interface energy check value iteration history trace: 1714.398936,1714.398935,1714.398935,1714.398935,1714.398935,1714.398935,1714.398935,1714.398935,1714.398935,1714.398935,
   **   ~~~   ** Supply-to-demand interface deck 1 energy check value iteration history trace: 2610.460673,2610.460673,2610.460672,2610.460672,2610.460672,2610.460672,2610.460672,2610.460671,2610.460671,2610.460671,
   ** Warning ** SimHVAC: Maximum iterations (20) exceeded for all HVAC loops, at ANNUAL, 01/30 11:00 - 11:03
   **   ~~~   ** The solution for one or more of the Air Loop HVAC systems did not appear to converge
   **   ~~~   ** Air System Named = CENTRAL SYSTEM did not converge for mass flow rate
   **   ~~~   ** Check values should be zero. Most Recent values listed first.
   **   ~~~   ** Demand-to-Supply interface mass flow rate check value iteration history trace: 8.136961E-002,8.136961E-002,8.136961E-002,8.136961E-002,8.136961E-002,8.136961E-002,8.136961E-002,8.136961E-002,8.136961E-002,8.136961E-002,
   **   ~~~   ** Supply-to-demand interface deck 1 mass flow rate check value iteration history trace: 8.136961E-002,8.136961E-002,8.136961E-002,8.136961E-002,8.136961E-002,8.136961E-002,8.136961E-002,8.136961E-002,8.136961E-002,8.136961E-002,
   **   ~~~   ** Air System Named = CENTRAL SYSTEM did not converge for energy
   **   ~~~   ** Check values should be zero. Most Recent values listed first.
   **   ~~~   ** Demand-to-Supply interface energy check value iteration history trace: 1608.451611,1608.451611,1608.451611,1608.451611,1608.451611,1608.451611,1608.451610,1608.451610,1608.451610,1608.451610,
   **   ~~~   ** Supply-to-demand interface deck 1 energy check value iteration history trace: 2465.146799,2465.146799,2465.146799,2465.146798,2465.146798,2465.146798,2465.146798,2465.146798,2465.146798,2465.146797,
   ** Warning ** SimHVAC: Maximum iterations (20) exceeded for all HVAC loops, at ANNUAL, 02/07 17:50 - 17:55
   **   ~~~   ** The solution for one or more of the Air Loop HVAC systems did not appear to converge
   **   ~~~   ** Air System Named = CENTRAL SYSTEM did not converge for mass flow rate
   **   ~~~   ** Check values should be zero. Most Recent values listed first.
   **   ~~~   ** Demand-to-Supply interface mass flow rate check value iteration history trace: 3.475238E-002,3.475238E-002,3.475238E-002,3.475238E-002,3.475238E-002,3.475238E-002,3.475238E-002,3.475238E-002,3.475238E-002,3.475238E-002,
   **   ~~~   ** Supply-to-demand interface deck 1 mass flow rate check value iteration history trace: 3.475238E-002,3.475238E-002,3.475238E-002,3.475238E-002,3.475238E-002,3.475238E-002,3.475238E-002,3.475238E-002,3.475238E-002,3.475238E-002,
   **   ~~~   ** Air System Named = CENTRAL SYSTEM did not converge for energy
   **   ~~~   ** Check values should be zero. Most Recent values listed first.
   **   ~~~   ** Demand-to-Supply interface energy check value iteration history trace: 684.393389,684.393389,684.393389,684.393389,684.393389,684.393389,684.393389,684.393389,684.393389,684.393388,
   **   ~~~   ** Supply-to-demand interface deck 1 energy check value iteration history trace: 1173.625173,1173.625173,1173.625173,1173.625173,1173.625173,1173.625173,1173.625173,1173.625173,1173.625173,1173.625173,
   ** Warning ** Temperature out of range [-100. to 200.] (PsyPsatFnTemp)
   **   ~~~   **  Routine=PsyTwbFnTdbWPb, Environment=ANNUAL, at Simulation time=02/17 12:00 - 12:04
   **   ~~~   **  Input Temperature=-297.93
   ** Warning ** SimHVAC: Maximum iterations (20) exceeded for all HVAC loops, at ANNUAL, 02/19 11:30 - 11:45
   **   ~~~   ** The solution for one or more of the Air Loop HVAC systems did not appear to converge
   **   ~~~   ** Air System Named = CENTRAL SYSTEM did not converge for mass flow rate
   **   ~~~   ** Check values should be zero. Most Recent values listed first.
   **   ~~~   ** Demand-to-Supply interface mass flow rate check value iteration history trace: 9.731129E-002,9.731129E-002,9.731129E-002,9.731129E-002,9.731129E-002,9.731129E-002,9.731129E-002,9.731129E-002,9.731129E-002,9.731129E-002,
   **   ~~~   ** Supply-to-demand interface deck 1 mass flow rate check value iteration history trace: 9.731129E-002,9.731129E-002,9.731129E-002,9.731129E-002,9.731129E-002,9.731129E-002,9.731129E-002,9.731129E-002,9.731129E-002,9.731129E-002,
   **   ~~~   ** Air System Named = CENTRAL SYSTEM did not converge for energy
   **   ~~~   ** Check values should be zero. Most Recent values listed first.
   **   ~~~   ** Demand-to-Supply interface energy check value iteration history trace: 1928.270182,1928.270182,1928.270182,1928.270181,1928.270181,1928.270181,1928.270181,1928.270181,1928.270181,1928.270181,
   **   ~~~   ** Supply-to-demand interface deck 1 energy check value iteration history trace: 2943.241693,2943.241693,2943.241693,2943.241693,2943.241692,2943.241692,2943.241692,2943.241692,2943.241692,2943.241692,
   ** Warning ** SimHVAC: Maximum iterations (20) exceeded for all HVAC loops, at ANNUAL, 03/05 09:45 - 09:47
   **   ~~~   ** The solution for one or more of the Air Loop HVAC systems did not appear to converge
   **   ~~~   ** Air System Named = CENTRAL SYSTEM did not converge for mass flow rate
   **   ~~~   ** Check values should be zero. Most Recent values listed first.
   **   ~~~   ** Demand-to-Supply interface mass flow rate check value iteration history trace: 9.016519E-002,9.016519E-002,9.016519E-002,9.016519E-002,9.016519E-002,9.016519E-002,9.016519E-002,9.016519E-002,9.016519E-002,9.016519E-002,
   **   ~~~   ** Supply-to-demand interface deck 1 mass flow rate check value iteration history trace: 9.016519E-002,9.016519E-002,9.016519E-002,9.016519E-002,9.016519E-002,9.016519E-002,9.016519E-002,9.016519E-002,9.016519E-002,9.016519E-002,
   **   ~~~   ** Air System Named = CENTRAL SYSTEM did not converge for energy
   **   ~~~   ** Check values should be zero. Most Recent values listed first.
   **   ~~~   ** Demand-to-Supply interface energy check value iteration history trace: 1784.577226,1784.577226,1784.577225,1784.577225,1784.577225,1784.577225,1784.577225,1784.577225,1784.577225,1784.577225,
   **   ~~~   ** Supply-to-demand interface deck 1 energy check value iteration history trace: 2989.965897,2989.965897,2989.965897,2989.965897,2989.965897,2989.965896,2989.965896,2989.965896,2989.965896,2989.965896,
   ** Warning ** SimHVAC: Maximum iterations (20) exceeded for all HVAC loops, at ANNUAL, 03/12 07:45 - 08:00
   **   ~~~   ** The solution for one or more of the Air Loop HVAC systems did not appear to converge
   **   ~~~   ** Air System Named = CENTRAL SYSTEM did not converge for mass flow rate
   **   ~~~   ** Check values should be zero. Most Recent values listed first.
   **   ~~~   ** Demand-to-Supply interface mass flow rate check value iteration history trace: 6.117741E-002,6.117741E-002,6.117741E-002,6.117741E-002,6.117741E-002,6.117741E-002,6.117741E-002,6.117741E-002,6.117741E-002,6.117741E-002,
   **   ~~~   ** Supply-to-demand interface deck 1 mass flow rate check value iteration history trace: 6.117741E-002,6.117741E-002,6.117741E-002,6.117741E-002,6.117741E-002,6.117741E-002,6.117741E-002,6.117741E-002,6.117741E-002,6.117741E-002,
   **   ~~~   ** Air System Named = CENTRAL SYSTEM did not converge for energy
   **   ~~~   ** Check values should be zero. Most Recent values listed first.
   **   ~~~   ** Demand-to-Supply interface energy check value iteration history trace: 1214.170691,1214.170691,1214.170691,1214.170690,1214.170690,1214.170690,1214.170690,1214.170690,1214.170690,1214.170690,
   **   ~~~   ** Supply-to-demand interface deck 1 energy check value iteration history trace: 2095.209181,2095.209181,2095.209180,2095.209180,2095.209180,2095.209180,2095.209180,2095.209180,2095.209180,2095.209180,
   ** Warning ** SimHVAC: Maximum iterations (20) exceeded for all HVAC loops, at ANNUAL, 03/12 13:15 - 13:30
   **   ~~~   ** The solution for one or more of the Air Loop HVAC systems did not appear to converge
   **   ~~~   ** Air System Named = CENTRAL SYSTEM did not converge for mass flow rate
   **   ~~~   ** Check values should be zero. Most Recent values listed first.
   **   ~~~   ** Demand-to-Supply interface mass flow rate check value iteration history trace: 5.945672E-002,5.945672E-002,5.945672E-002,5.945672E-002,5.945672E-002,5.945672E-002,5.945672E-002,5.945672E-002,5.945672E-002,5.945672E-002,
   **   ~~~   ** Supply-to-demand interface deck 1 mass flow rate check value iteration history trace: 5.945672E-002,5.945672E-002,5.945672E-002,5.945672E-002,5.945672E-002,5.945672E-002,5.945672E-002,5.945672E-002,5.945672E-002,5.945672E-002,
   **   ~~~   ** Air System Named = CENTRAL SYSTEM did not converge for energy
   **   ~~~   ** Check values should be zero. Most Recent values listed first.
   **   ~~~   ** Demand-to-Supply interface energy check value iteration history trace: 1178.222167,1178.222167,1178.222166,1178.222166,1178.222166,1178.222166,1178.222166,1178.222166,1178.222166,1178.222166,
   **   ~~~   ** Supply-to-demand interface deck 1 energy check value iteration history trace: 2015.495265,2015.495265,2015.495265,2015.495265,2015.495265,2015.495265,2015.495265,2015.495265,2015.495265,2015.495265,
   ** Warning ** SimHVAC: Maximum iterations (20) exceeded for all HVAC loops, at ANNUAL, 03/13 19:30 - 19:45
   **   ~~~   ** The solution for one or more of the Air Loop HVAC systems did not appear to converge
   **   ~~~   ** Air System Named = CENTRAL SYSTEM did not converge for mass flow rate
   **   ~~~   ** Check values should be zero. Most Recent values listed first.
   **   ~~~   ** Demand-to-Supply interface mass flow rate check value iteration history trace: 5.908432E-002,5.908432E-002,5.908432E-002,5.908432E-002,5.908432E-002,5.908432E-002,5.908432E-002,5.908432E-002,5.908432E-002,5.908432E-002,
   **   ~~~   ** Supply-to-demand interface deck 1 mass flow rate check value iteration history trace: 5.908432E-002,5.908432E-002,5.908432E-002,5.908432E-002,5.908432E-002,5.908432E-002,5.908432E-002,5.908432E-002,5.908432E-002,5.908432E-002,
   **   ~~~   ** Air System Named = CENTRAL SYSTEM did not converge for energy
   **   ~~~   ** Check values should be zero. Most Recent values listed first.
   **   ~~~   ** Demand-to-Supply interface energy check value iteration history trace: 1171.166325,1171.166325,1171.166325,1171.166325,1171.166325,1171.166325,1171.166325,1171.166325,1171.166325,1171.166325,
   **   ~~~   ** Supply-to-demand interface deck 1 energy check value iteration history trace: 2002.400954,2002.400954,2002.400954,2002.400954,2002.400954,2002.400954,2002.400954,2002.400954,2002.400954,2002.400953,
   ** Warning ** SimHVAC: Maximum iterations (20) exceeded for all HVAC loops, at ANNUAL, 03/26 09:02 - 09:04
   **   ~~~   ** The solution for one or more of the Air Loop HVAC systems did not appear to converge
   **   ~~~   ** Air System Named = CENTRAL SYSTEM did not converge for mass flow rate
   **   ~~~   ** Check values should be zero. Most Recent values listed first.
   **   ~~~   ** Demand-to-Supply interface mass flow rate check value iteration history trace: 0.106355,0.106355,0.106355,0.106355,0.106355,0.106355,0.106355,0.106355,0.106355,0.106355,
   **   ~~~   ** Supply-to-demand interface deck 1 mass flow rate check value iteration history trace: 0.106355,0.106355,0.106355,0.106355,0.106355,0.106355,0.106355,0.106355,0.106355,0.106355,
   **   ~~~   ** Air System Named = CENTRAL SYSTEM did not converge for energy
   **   ~~~   ** Check values should be zero. Most Recent values listed first.
   **   ~~~   ** Demand-to-Supply interface energy check value iteration history trace: 2107.758800,2107.758800,2107.758799,2107.758799,2107.758799,2107.758799,2107.758799,2107.758799,2107.758799,2107.758798,
   **   ~~~   ** Supply-to-demand interface deck 1 energy check value iteration history trace: 3195.792714,3195.792714,3195.792713,3195.792713,3195.792713,3195.792713,3195.792712,3195.792712,3195.792712,3195.792712,
   ** Warning ** SimHVAC: Maximum iterations (20) exceeded for all HVAC loops, at ANNUAL, 05/06 06:51 - 06:52
   **   ~~~   ** The solution for one or more of the Air Loop HVAC systems did not appear to converge
   **   ~~~   ** Air System Named = CENTRAL SYSTEM did not converge for mass flow rate
   **   ~~~   ** Check values should be zero. Most Recent values listed first.
   **   ~~~   ** Demand-to-Supply interface mass flow rate check value iteration history trace: 0.245348,0.245348,0.245348,0.245348,0.245348,0.245348,0.245348,0.245348,0.245348,0.245348,
   **   ~~~   ** Supply-to-demand interface deck 1 mass flow rate check value iteration history trace: 0.245348,0.245348,0.245348,0.245348,0.245348,0.245348,0.245348,0.245348,0.245348,0.245348,
   **   ~~~   ** Air System Named = CENTRAL SYSTEM did not converge for energy
   **   ~~~   ** Check values should be zero. Most Recent values listed first.
   **   ~~~   ** Demand-to-Supply interface energy check value iteration history trace: 5827.375150,5827.375151,5827.375151,5827.375152,5827.375153,5827.375154,5827.375154,5827.375155,5827.375156,5827.375156,
   **   ~~~   ** Supply-to-demand interface deck 1 energy check value iteration history trace: 2942.440835,2942.440835,2942.440835,2942.440836,2942.440836,2942.440836,2942.440837,2942.440837,2942.440838,2942.440838,
   ** Warning ** SimHVAC: Maximum iterations (20) exceeded for all HVAC loops, at ANNUAL, 05/06 07:32 - 07:34
   **   ~~~   ** The solution for one or more of the Air Loop HVAC systems did not appear to converge
   **   ~~~   ** Air System Named = CENTRAL SYSTEM did not converge for mass flow rate
   **   ~~~   ** Check values should be zero. Most Recent values listed first.
   **   ~~~   ** Demand-to-Supply interface mass flow rate check value iteration history trace: 0.175585,0.175585,0.175585,0.175585,0.175585,0.175585,0.175585,0.175585,0.175585,0.175585,
   **   ~~~   ** Supply-to-demand interface deck 1 mass flow rate check value iteration history trace: 0.175585,0.175585,0.175585,0.175585,0.175585,0.175585,0.175585,0.175585,0.175585,0.175585,
   **   ~~~   ** Air System Named = CENTRAL SYSTEM did not converge for energy
   **   ~~~   ** Check values should be zero. Most Recent values listed first.
   **   ~~~   ** Demand-to-Supply interface energy check value iteration history trace: 4152.584246,4152.584246,4152.584247,4152.584247,4152.584248,4152.584248,4152.584249,4152.584249,4152.584249,4152.584250,
   **   ~~~   ** Supply-to-demand interface deck 1 energy check value iteration history trace: 2069.717601,2069.717601,2069.717601,2069.717601,2069.717602,2069.717602,2069.717602,2069.717602,2069.717603,2069.717603,
   ** Warning ** SimHVAC: Maximum iterations (20) exceeded for all HVAC loops, at ANNUAL, 05/14 09:40 - 09:45
   **   ~~~   ** The solution for one or more of the Air Loop HVAC systems did not appear to converge
   **   ~~~   ** Air System Named = CENTRAL SYSTEM did not converge for mass flow rate
   **   ~~~   ** Check values should be zero. Most Recent values listed first.
   **   ~~~   ** Demand-to-Supply interface mass flow rate check value iteration history trace: 0.224475,0.224475,0.224475,0.224475,0.224475,0.224475,0.224475,0.224475,0.224475,0.224475,
   **   ~~~   ** Supply-to-demand interface deck 1 mass flow rate check value iteration history trace: 0.224475,0.224475,0.224475,0.224475,0.224475,0.224475,0.224475,0.224475,0.224475,0.224475,
   **   ~~~   ** Air System Named = CENTRAL SYSTEM did not converge for energy
   **   ~~~   ** Check values should be zero. Most Recent values listed first.
   **   ~~~   ** Demand-to-Supply interface energy check value iteration history trace: 5416.800732,5416.800733,5416.800733,5416.800734,5416.800735,5416.800735,5416.800736,5416.800737,5416.800737,5416.800738,
   **   ~~~   ** Supply-to-demand interface deck 1 energy check value iteration history trace: 2941.756132,2941.756132,2941.756133,2941.756133,2941.756134,2941.756134,2941.756134,2941.756135,2941.756135,2941.756135,
   ************* Simulation Error Summary *************
   ** Warning ** The following Report Variables were requested but not generated -- check.rdd file
   **   ~~~   ** Either the IDF did not contain these elements, the variable name is misspelled,
   **   ~~~   ** or the requested variable is an advanced output which requires Output : Diagnostics, DisplayAdvancedReportVariables;
   ************* Key=*, VarName=BASEBOARD TOTAL HEATING ENERGY, Frequency=
   ************* Key=*, VarName=WATER HEATER NATURALGAS ENERGY, Frequency=
   ************* Key=*, VarName=COOLING COIL TOTAL HEATING ENERGY, Frequency=
   ************* There are 34 unused schedules in input.
   ************* There are 388 unused week schedules in input.
   ************* There are 396 unused day schedules in input.
   ************* Use Output:Diagnostics,DisplayUnusedSchedules; to see them.
   *************
   ************* ===== Recurring Error Summary =====
   ************* The following recurring error messages occurred.
   *************
   *************  ** Warning ** "TOTAL HOT WATER LOAD" - Target water temperature should be less than or equal to the hot water temperature error continues...
   *************  **   ~~~   **   This error occurred 136663 total times;
   *************  **   ~~~   **   during Warmup 0 times;
   *************  **   ~~~   **   during Sizing 0 times.
   *************  **   ~~~   **   Max=12.28605  Min=3.027595E-004
   *************
   *************  ** Warning ** Temperature out of range [-100. to 200.] (PsyPsatFnTemp)
   *************  **   ~~~   **   This error occurred 1 total times;
   *************  **   ~~~   **   during Warmup 0 times;
   *************  **   ~~~   **   during Sizing 0 times.
   *************  **   ~~~   **   Max=-297.932968 C  Min=-297.932968 C
   *************
   *************  ** Warning ** SimHVAC: Exceeding Maximum iterations for all HVAC loops, during ANNUAL continues
   *************  **   ~~~   **   This error occurred 6 total times;
   *************  **   ~~~   **   during Warmup 0 times;
   *************  **   ~~~   **   during Sizing 0 times.
   *************
   *************
   ************* ===== Final Error Summary =====
   ************* The following error categories occurred.  Consider correcting or noting.
   ************* Nominally Unused Constructions
   ************* ..The nominally unused constructions warning is provided to alert you to potential conditions that can cause
   ************* ..extra time during simulation. Each construction is calculated by the algorithm indicated in the HeatBalanceAlgorithm
   ************* ..object. You may remove the constructions indicated (when you use the DisplayExtraWarnings option).
   *************
   ************* EnergyPlus Warmup Error Summary. During Warmup: 1 Warning; 0 Severe Errors.
   ************* EnergyPlus Sizing Error Summary. During Sizing: 4 Warning; 0 Severe Errors.
   ************* EnergyPlus Completed Successfully-- 136702 Warning; 0 Severe Errors; Elapsed Time=00hr 01min 38.93sec
