Program Version,EnergyPlus, Version 9.5.0-de239b2e5f, YMD=2022.08.02 21:16,
   ** Severe  ** <root>[RunPeriod][Annual] - Missing required property 'begin_day_of_month'.
   ** Severe  ** <root>[RunPeriod][Annual] - Missing required property 'begin_month'.
   ** Severe  ** <root>[RunPeriod][Annual] - Missing required property 'end_day_of_month'.
   ** Severe  ** <root>[RunPeriod][Annual] - Missing required property 'end_month'.
   **  Fatal  ** Errors occurred on processing input file. Preceding condition(s) cause termination.
   ...Summary of Errors that led to program termination:
   ..... Reference severe error count=4
   ..... Last severe error=<root>[RunPeriod][Annual] - Missing required property 'end_month'.
   ************* Warning:  Node connection errors not checked - most system input has not been read (see previous warning).
   ************* Fatal error -- final processing.  Program exited before simulations began.  See previous error messages.
   ************* EnergyPlus Warmup Error Summary. During Warmup: 0 Warning; 0 Severe Errors.
   ************* EnergyPlus Sizing Error Summary. During Sizing: 0 Warning; 0 Severe Errors.
   ************* EnergyPlus Terminated--Fatal Error Detected. 0 Warning; 4 Severe Errors; Elapsed Time=00hr 00min  0.23sec
