Program Version,EnergyPlus, Version 22.2.0-c249759bad, YMD=2023.09.01 19:22,
   ************* Beginning Zone Sizing Calculations
   ** Warning ** ProcessScheduleInput: Schedule:Constant="ALWAYS ON DISCRETE", Schedule Type Limits Name="ONOFF" not found -- will not be validated
   ** Warning ** Foundation:Kiva="KIVA FOUNDATION", no Interior Horizontal Insulation Material Name defined
   **   ~~~   ** Interior Horizontal Insulation Depth will not be used.
   ** Warning ** CheckUsedConstructions: There are 15 nominally unused constructions in input.
   **   ~~~   ** Each Unused construction is shown.
   ************* Construction=INTERIOR FLOOR
   ************* Construction=INTERIOR WINDOW
   ************* Construction=EXTERIOR DOOR
   ************* Construction=INTERIOR DOOR
   ************* Construction=GABLE CONSTRUCTION
   ************* Construction=CRAWL_FLOOR
   ************* Construction=INSULATED PIPE
   ************* Construction=PLAIN PIPE
   ************* Construction=TDD PIPE
   ************* Construction=TDD DOME
   ************* Construction=TDD DIFFUSER
   ************* Construction=CRAWL WALL
   ************* Construction=CEILING-FLOOR-LAYER
   ************* Construction=SLAB CONSTRUCTION W FULL R10 INSULATION
   ************* Construction=SLAB CONSTRUCTION W FULL R5 INSULATION
   ** Warning ** GetDXCoils: Coil:Heating:DX:SingleSpeed="DX_HEATING_COIL" curve values
   **   ~~~   ** ... Defrost Energy Input Ratio Function of Temperature Curve Name = DEFROSTEIR output is not equal to 1.0 (+ or - 10%) at rated conditions.
   **   ~~~   ** ... Curve output at rated conditions = 0.152
   ************* Beginning System Sizing Calculations
   ************* Beginning Plant Sizing Calculations
   ** Warning ** SizeDXCoil Coil:Cooling:DX:SingleSpeed DX_COOLING_COIL
   **   ~~~   ** ...Gross Rated Total Cooling Capacity [W] will be limited by the maximum rated volume flow per rated total capacity ratio.
   **   ~~~   ** ...DX coil volume flow rate ( m3/s ) = 0.443150
   **   ~~~   ** ...Requested capacity ( W ) = 6317.128
   **   ~~~   ** ...Requested flow/capacity ratio ( m3/s/W ) = 7.015E-005
   **   ~~~   ** ...Maximum flow/capacity ratio ( m3/s/W ) = 6.041E-005
   **   ~~~   ** ...Adjusted capacity ( W ) = 7335.713
   ** Warning ** Coil:WaterHeating:AirToWaterHeatPump:Wrapped "HEAT PUMP WATER HEATER EVAPORATOR": Rated air volume flow rate per watt of rated total water heating capacity is out of range
   **   ~~~   ** Min Rated Vol Flow Per Watt=[4.027E-005], Rated Vol Flow Per Watt=[1.510E-004], Max Rated Vol Flow Per Watt=[8.056E-005]. See Input-Output Reference Manual for valid range.
   ************* SizeFan: : Potential issue with equipment sizing for Fan:OnOff HEAT PUMP WATER HEATER FAN
   **   ~~~   ** User-Specified Maximum Flow Rate [m3/s] = 0.22653
   **   ~~~   ** differs from Design Size Maximum Flow Rate [m3/s] = 7.55250E-002
   **   ~~~   ** This may, or may not, indicate mismatched component sizes.
   **   ~~~   ** Verify that the value entered is intended and is consistent with other components.
   ** Warning ** Water heater = WATER HEATER TANK:  Recovery Efficiency and Energy Factor could not be calculated during the test for standard ratings
   **   ~~~   ** Setpoint was never recovered and/or heater never turned on
   ** Warning ** Check input. Pump nominal power or motor efficiency is set to 0, for pump=MAINS PRESSURE
   ** Warning ** Output:Meter: invalid Key Name="ELECTRIC_RANGE:INTERIOREQUIPMENT:ELECTRICITY" - not found.
   ** Warning ** Output:Meter: invalid Key Name="ELECTRIC_DRYER:INTERIOREQUIPMENT:ELECTRICITY" - not found.
   ** Warning ** Output:Meter: invalid Key Name="HEATRECOVERY:ELECTRICITY" - not found.
   ** Warning ** Output:Meter: invalid Key Name="HEATING:NATURALGAS" - not found.
   ** Warning ** Output:Meter: invalid Key Name="WATERSYSTEMS:NATURALGAS" - not found.
   ** Warning ** Output:Meter: invalid Key Name="PROPANE:FACILITY" - not found.
   ** Warning ** Output:Meter: invalid Key Name="HEATING:PROPANE" - not found.
   ************* Testing Individual Branch Integrity
   ************* All Branches passed integrity testing
   ************* Testing Individual Supply Air Path Integrity
   ************* All Supply Air Paths passed integrity testing
   ************* Testing Individual Return Air Path Integrity
   ************* All Return Air Paths passed integrity testing
   ************* No node connection errors were found.
   ************* Beginning Simulation
   ** Warning ** AirflowNetwork::Solver::validate_distribution: Heat pump water heater is simulated along with an AirflowNetwork but is not included in the AirflowNetwork.
   ** Warning ** CalcEquipmentFlowRates: "TOTAL HOT WATER LOAD" - Target water temperature is greater than the hot water temperature by (2.08 C)
   **   ~~~   **  Environment=EXTREME_WINTER, at Simulation time=01/01 06:45 - 07:00
   **   ~~~   ** ...target water temperature     = 53.33 C
   **   ~~~   ** ...hot water temperature        = 51.25 C
   **   ~~~   ** ...Target water temperature should be less than or equal to the hot water temperature. Verify temperature setpoints and schedules.
   ** Warning ** SimHVAC: Maximum iterations (20) exceeded for all HVAC loops, at ANNUAL, 01/22 12:45 - 13:00
   **   ~~~   ** The solution for one or more of the Air Loop HVAC systems did not appear to converge
   **   ~~~   ** Air System Named = CENTRAL SYSTEM did not converge for mass flow rate
   **   ~~~   ** Check values should be zero. Most Recent values listed first.
   **   ~~~   ** Demand-to-Supply interface mass flow rate check value iteration history trace: 6.832010E-002,6.832010E-002,6.832010E-002,6.832010E-002,6.832010E-002,6.832010E-002,6.832010E-002,6.832010E-002,6.832010E-002,6.832010E-002,
   **   ~~~   ** Supply-to-demand interface deck 1 mass flow rate check value iteration history trace: 6.832010E-002,6.832010E-002,6.832010E-002,6.832010E-002,6.832010E-002,6.832010E-002,6.832010E-002,6.832010E-002,6.832010E-002,6.832010E-002,
   **   ~~~   ** Air System Named = CENTRAL SYSTEM did not converge for energy
   **   ~~~   ** Check values should be zero. Most Recent values listed first.
   **   ~~~   ** Demand-to-Supply interface energy check value iteration history trace: 1354.058194,1354.058194,1354.058194,1354.058194,1354.058194,1354.058194,1354.058194,1354.058194,1354.058194,1354.058194,
   **   ~~~   ** Supply-to-demand interface deck 1 energy check value iteration history trace: 2328.912377,2328.912377,2328.912377,2328.912377,2328.912377,2328.912377,2328.912377,2328.912377,2328.912376,2328.912376,
   ** Warning ** SimHVAC: Maximum iterations (20) exceeded for all HVAC loops, at ANNUAL, 02/17 10:15 - 10:22
   **   ~~~   ** The solution for one or more of the Air Loop HVAC systems did not appear to converge
   **   ~~~   ** Air System Named = CENTRAL SYSTEM did not converge for mass flow rate
   **   ~~~   ** Check values should be zero. Most Recent values listed first.
   **   ~~~   ** Demand-to-Supply interface mass flow rate check value iteration history trace: 7.291251E-002,7.291251E-002,7.291251E-002,7.291251E-002,7.291251E-002,7.291251E-002,7.291251E-002,7.291251E-002,7.291251E-002,7.291251E-002,
   **   ~~~   ** Supply-to-demand interface deck 1 mass flow rate check value iteration history trace: 7.291251E-002,7.291251E-002,7.291251E-002,7.291251E-002,7.291251E-002,7.291251E-002,7.291251E-002,7.291251E-002,7.291251E-002,7.291251E-002,
   **   ~~~   ** Air System Named = CENTRAL SYSTEM did not converge for energy
   **   ~~~   ** Check values should be zero. Most Recent values listed first.
   **   ~~~   ** Demand-to-Supply interface energy check value iteration history trace: 1444.790656,1444.790656,1444.790656,1444.790656,1444.790656,1444.790656,1444.790656,1444.790656,1444.790656,1444.790656,
   **   ~~~   ** Supply-to-demand interface deck 1 energy check value iteration history trace: 2273.549444,2273.549444,2273.549444,2273.549443,2273.549443,2273.549443,2273.549443,2273.549443,2273.549443,2273.549442,
   ** Warning ** SimHVAC: Maximum iterations (20) exceeded for all HVAC loops, at ANNUAL, 03/02 18:08 - 18:15
   **   ~~~   ** The solution for one or more of the Air Loop HVAC systems did not appear to converge
   **   ~~~   ** Air System Named = CENTRAL SYSTEM did not converge for mass flow rate
   **   ~~~   ** Check values should be zero. Most Recent values listed first.
   **   ~~~   ** Demand-to-Supply interface mass flow rate check value iteration history trace: 5.506025E-002,5.506025E-002,5.506025E-002,5.506025E-002,5.506025E-002,5.506025E-002,5.506025E-002,5.506025E-002,5.506025E-002,5.506025E-002,
   **   ~~~   ** Supply-to-demand interface deck 1 mass flow rate check value iteration history trace: 5.506025E-002,5.506025E-002,5.506025E-002,5.506025E-002,5.506025E-002,5.506025E-002,5.506025E-002,5.506025E-002,5.506025E-002,5.506025E-002,
   **   ~~~   ** Air System Named = CENTRAL SYSTEM did not converge for energy
   **   ~~~   ** Check values should be zero. Most Recent values listed first.
   **   ~~~   ** Demand-to-Supply interface energy check value iteration history trace: 1076.284369,1076.284369,1076.284369,1076.284369,1076.284369,1076.284369,1076.284369,1076.284369,1076.284368,1076.284368,
   **   ~~~   ** Supply-to-demand interface deck 1 energy check value iteration history trace: 1945.452604,1945.452604,1945.452604,1945.452604,1945.452603,1945.452603,1945.452603,1945.452603,1945.452603,1945.452603,
   ** Warning ** SimHVAC: Maximum iterations (20) exceeded for all HVAC loops, at ANNUAL, 03/04 14:05 - 14:10
   **   ~~~   ** The solution for one or more of the Air Loop HVAC systems did not appear to converge
   **   ~~~   ** Air System Named = CENTRAL SYSTEM did not converge for mass flow rate
   **   ~~~   ** Check values should be zero. Most Recent values listed first.
   **   ~~~   ** Demand-to-Supply interface mass flow rate check value iteration history trace: 6.300674E-002,6.300674E-002,6.300674E-002,6.300674E-002,6.300674E-002,6.300674E-002,6.300674E-002,6.300674E-002,6.300674E-002,6.300674E-002,
   **   ~~~   ** Supply-to-demand interface deck 1 mass flow rate check value iteration history trace: 6.300674E-002,6.300674E-002,6.300674E-002,6.300674E-002,6.300674E-002,6.300674E-002,6.300674E-002,6.300674E-002,6.300674E-002,6.300674E-002,
   **   ~~~   ** Air System Named = CENTRAL SYSTEM did not converge for energy
   **   ~~~   ** Check values should be zero. Most Recent values listed first.
   **   ~~~   ** Demand-to-Supply interface energy check value iteration history trace: 1248.266843,1248.266843,1248.266843,1248.266843,1248.266843,1248.266843,1248.266843,1248.266842,1248.266842,1248.266842,
   **   ~~~   ** Supply-to-demand interface deck 1 energy check value iteration history trace: 2018.964544,2018.964544,2018.964544,2018.964543,2018.964543,2018.964543,2018.964543,2018.964543,2018.964543,2018.964543,
   ** Warning ** SimHVAC: Maximum iterations (20) exceeded for all HVAC loops, at ANNUAL, 03/04 20:15 - 20:30
   **   ~~~   ** The solution for one or more of the Air Loop HVAC systems did not appear to converge
   **   ~~~   ** Air System Named = CENTRAL SYSTEM did not converge for mass flow rate
   **   ~~~   ** Check values should be zero. Most Recent values listed first.
   **   ~~~   ** Demand-to-Supply interface mass flow rate check value iteration history trace: 7.407642E-002,7.407642E-002,7.407642E-002,7.407642E-002,7.407642E-002,7.407642E-002,7.407642E-002,7.407642E-002,7.407642E-002,7.407642E-002,
   **   ~~~   ** Supply-to-demand interface deck 1 mass flow rate check value iteration history trace: 7.407642E-002,7.407642E-002,7.407642E-002,7.407642E-002,7.407642E-002,7.407642E-002,7.407642E-002,7.407642E-002,7.407642E-002,7.407642E-002,
   **   ~~~   ** Air System Named = CENTRAL SYSTEM did not converge for energy
   **   ~~~   ** Check values should be zero. Most Recent values listed first.
   **   ~~~   ** Demand-to-Supply interface energy check value iteration history trace: 1467.809846,1467.809845,1467.809845,1467.809845,1467.809845,1467.809845,1467.809845,1467.809845,1467.809845,1467.809845,
   **   ~~~   ** Supply-to-demand interface deck 1 energy check value iteration history trace: 2327.676420,2327.676420,2327.676420,2327.676420,2327.676420,2327.676419,2327.676419,2327.676419,2327.676419,2327.676419,
   ** Warning ** SimHVAC: Maximum iterations (20) exceeded for all HVAC loops, at ANNUAL, 03/13 09:30 - 09:45
   **   ~~~   ** The solution for one or more of the Air Loop HVAC systems did not appear to converge
   **   ~~~   ** Air System Named = CENTRAL SYSTEM did not converge for mass flow rate
   **   ~~~   ** Check values should be zero. Most Recent values listed first.
   **   ~~~   ** Demand-to-Supply interface mass flow rate check value iteration history trace: 5.816359E-002,5.816359E-002,5.816359E-002,5.816359E-002,5.816359E-002,5.816359E-002,5.816359E-002,5.816359E-002,5.816359E-002,5.816359E-002,
   **   ~~~   ** Supply-to-demand interface deck 1 mass flow rate check value iteration history trace: 5.816359E-002,5.816359E-002,5.816359E-002,5.816359E-002,5.816359E-002,5.816359E-002,5.816359E-002,5.816359E-002,5.816359E-002,5.816359E-002,
   **   ~~~   ** Air System Named = CENTRAL SYSTEM did not converge for energy
   **   ~~~   ** Check values should be zero. Most Recent values listed first.
   **   ~~~   ** Demand-to-Supply interface energy check value iteration history trace: 1152.581375,1152.581375,1152.581375,1152.581375,1152.581374,1152.581374,1152.581374,1152.581374,1152.581374,1152.581374,
   **   ~~~   ** Supply-to-demand interface deck 1 energy check value iteration history trace: 2065.075430,2065.075430,2065.075430,2065.075429,2065.075429,2065.075429,2065.075429,2065.075429,2065.075429,2065.075429,
   ** Warning ** SimHVAC: Maximum iterations (20) exceeded for all HVAC loops, at ANNUAL, 03/22 19:30 - 19:45
   **   ~~~   ** The solution for one or more of the Air Loop HVAC systems did not appear to converge
   **   ~~~   ** Air System Named = CENTRAL SYSTEM did not converge for mass flow rate
   **   ~~~   ** Check values should be zero. Most Recent values listed first.
   **   ~~~   ** Demand-to-Supply interface mass flow rate check value iteration history trace: 7.580470E-002,7.580470E-002,7.580470E-002,7.580470E-002,7.580470E-002,7.580470E-002,7.580470E-002,7.580470E-002,7.580470E-002,7.580470E-002,
   **   ~~~   ** Supply-to-demand interface deck 1 mass flow rate check value iteration history trace: 7.580470E-002,7.580470E-002,7.580470E-002,7.580470E-002,7.580470E-002,7.580470E-002,7.580470E-002,7.580470E-002,7.580470E-002,7.580470E-002,
   **   ~~~   ** Air System Named = CENTRAL SYSTEM did not converge for energy
   **   ~~~   ** Check values should be zero. Most Recent values listed first.
   **   ~~~   ** Demand-to-Supply interface energy check value iteration history trace: 1494.262822,1494.262822,1494.262822,1494.262822,1494.262822,1494.262822,1494.262822,1494.262822,1494.262821,1494.262821,
   **   ~~~   ** Supply-to-demand interface deck 1 energy check value iteration history trace: 2339.123041,2339.123040,2339.123040,2339.123040,2339.123040,2339.123040,2339.123040,2339.123040,2339.123039,2339.123039,
   ** Warning ** SimHVAC: Maximum iterations (20) exceeded for all HVAC loops, at ANNUAL, 04/04 20:15 - 20:30
   **   ~~~   ** The solution for one or more of the Air Loop HVAC systems did not appear to converge
   **   ~~~   ** Air System Named = CENTRAL SYSTEM did not converge for mass flow rate
   **   ~~~   ** Check values should be zero. Most Recent values listed first.
   **   ~~~   ** Demand-to-Supply interface mass flow rate check value iteration history trace: 6.481705E-002,6.481705E-002,6.481705E-002,6.481705E-002,6.481705E-002,6.481705E-002,6.481705E-002,6.481705E-002,6.481705E-002,6.481705E-002,
   **   ~~~   ** Supply-to-demand interface deck 1 mass flow rate check value iteration history trace: 6.481705E-002,6.481705E-002,6.481705E-002,6.481705E-002,6.481705E-002,6.481705E-002,6.481705E-002,6.481705E-002,6.481705E-002,6.481705E-002,
   **   ~~~   ** Air System Named = CENTRAL SYSTEM did not converge for energy
   **   ~~~   ** Check values should be zero. Most Recent values listed first.
   **   ~~~   ** Demand-to-Supply interface energy check value iteration history trace: 1282.046638,1282.046637,1282.046637,1282.046637,1282.046637,1282.046637,1282.046637,1282.046637,1282.046637,1282.046637,
   **   ~~~   ** Supply-to-demand interface deck 1 energy check value iteration history trace: 2214.654729,2214.654729,2214.654729,2214.654729,2214.654729,2214.654729,2214.654729,2214.654729,2214.654729,2214.654728,
   ** Warning ** SimHVAC: Maximum iterations (20) exceeded for all HVAC loops, at ANNUAL, 04/12 08:38 - 08:40
   **   ~~~   ** The solution for one or more of the Air Loop HVAC systems did not appear to converge
   **   ~~~   ** Air System Named = CENTRAL SYSTEM did not converge for mass flow rate
   **   ~~~   ** Check values should be zero. Most Recent values listed first.
   **   ~~~   ** Demand-to-Supply interface mass flow rate check value iteration history trace: 7.759485E-002,7.759485E-002,7.759485E-002,7.759485E-002,7.759485E-002,7.759485E-002,7.759485E-002,7.759485E-002,7.759485E-002,7.759485E-002,
   **   ~~~   ** Supply-to-demand interface deck 1 mass flow rate check value iteration history trace: 7.759485E-002,7.759485E-002,7.759485E-002,7.759485E-002,7.759485E-002,7.759485E-002,7.759485E-002,7.759485E-002,7.759485E-002,7.759485E-002,
   **   ~~~   ** Air System Named = CENTRAL SYSTEM did not converge for energy
   **   ~~~   ** Check values should be zero. Most Recent values listed first.
   **   ~~~   ** Demand-to-Supply interface energy check value iteration history trace: 1535.729119,1535.729119,1535.729118,1535.729118,1535.729118,1535.729118,1535.729118,1535.729118,1535.729118,1535.729118,
   **   ~~~   ** Supply-to-demand interface deck 1 energy check value iteration history trace: 2661.718488,2661.718488,2661.718487,2661.718487,2661.718487,2661.718487,2661.718487,2661.718487,2661.718487,2661.718487,
   ** Warning ** SimHVAC: Maximum iterations (20) exceeded for all HVAC loops, at ANNUAL, 04/19 09:30 - 09:35
   **   ~~~   ** The solution for one or more of the Air Loop HVAC systems did not appear to converge
   **   ~~~   ** Air System Named = CENTRAL SYSTEM did not converge for mass flow rate
   **   ~~~   ** Check values should be zero. Most Recent values listed first.
   **   ~~~   ** Demand-to-Supply interface mass flow rate check value iteration history trace: 7.357297E-002,7.357297E-002,7.357297E-002,7.357297E-002,7.357297E-002,7.357297E-002,7.357297E-002,7.357297E-002,7.357297E-002,7.357297E-002,
   **   ~~~   ** Supply-to-demand interface deck 1 mass flow rate check value iteration history trace: 7.357297E-002,7.357297E-002,7.357297E-002,7.357297E-002,7.357297E-002,7.357297E-002,7.357297E-002,7.357297E-002,7.357297E-002,7.357297E-002,
   **   ~~~   ** Air System Named = CENTRAL SYSTEM did not converge for energy
   **   ~~~   ** Check values should be zero. Most Recent values listed first.
   **   ~~~   ** Demand-to-Supply interface energy check value iteration history trace: 1457.917912,1457.917912,1457.917911,1457.917911,1457.917911,1457.917911,1457.917911,1457.917911,1457.917911,1457.917911,
   **   ~~~   ** Supply-to-demand interface deck 1 energy check value iteration history trace: 2529.977995,2529.977995,2529.977995,2529.977995,2529.977995,2529.977995,2529.977995,2529.977994,2529.977994,2529.977994,
   ** Warning ** SimHVAC: Maximum iterations (20) exceeded for all HVAC loops, at ANNUAL, 04/24 09:00 - 09:15
   **   ~~~   ** The solution for one or more of the Air Loop HVAC systems did not appear to converge
   **   ~~~   ** Air System Named = CENTRAL SYSTEM did not converge for mass flow rate
   **   ~~~   ** Check values should be zero. Most Recent values listed first.
   **   ~~~   ** Demand-to-Supply interface mass flow rate check value iteration history trace: 5.654141E-002,5.654141E-002,5.654141E-002,5.654141E-002,5.654141E-002,5.654141E-002,5.654141E-002,5.654141E-002,5.654141E-002,5.654141E-002,
   **   ~~~   ** Supply-to-demand interface deck 1 mass flow rate check value iteration history trace: 5.654141E-002,5.654141E-002,5.654141E-002,5.654141E-002,5.654141E-002,5.654141E-002,5.654141E-002,5.654141E-002,5.654141E-002,5.654141E-002,
   **   ~~~   ** Air System Named = CENTRAL SYSTEM did not converge for energy
   **   ~~~   ** Check values should be zero. Most Recent values listed first.
   **   ~~~   ** Demand-to-Supply interface energy check value iteration history trace: 1120.450526,1120.450526,1120.450526,1120.450525,1120.450525,1120.450525,1120.450525,1120.450525,1120.450525,1120.450525,
   **   ~~~   ** Supply-to-demand interface deck 1 energy check value iteration history trace: 2048.686156,2048.686156,2048.686156,2048.686156,2048.686156,2048.686156,2048.686156,2048.686156,2048.686156,2048.686156,
   ** Warning ** SimHVAC: Maximum iterations (20) exceeded for all HVAC loops, at ANNUAL, 05/12 08:15 - 08:30
   **   ~~~   ** The solution for one or more of the Air Loop HVAC systems did not appear to converge
   **   ~~~   ** Air System Named = CENTRAL SYSTEM did not converge for mass flow rate
   **   ~~~   ** Check values should be zero. Most Recent values listed first.
   **   ~~~   ** Demand-to-Supply interface mass flow rate check value iteration history trace: 6.535354E-002,6.535354E-002,6.535354E-002,6.535354E-002,6.535354E-002,6.535354E-002,6.535354E-002,6.535354E-002,6.535354E-002,6.535354E-002,
   **   ~~~   ** Supply-to-demand interface deck 1 mass flow rate check value iteration history trace: 6.535354E-002,6.535354E-002,6.535354E-002,6.535354E-002,6.535354E-002,6.535354E-002,6.535354E-002,6.535354E-002,6.535354E-002,6.535354E-002,
   **   ~~~   ** Air System Named = CENTRAL SYSTEM did not converge for energy
   **   ~~~   ** Check values should be zero. Most Recent values listed first.
   **   ~~~   ** Demand-to-Supply interface energy check value iteration history trace: 1295.010357,1295.010356,1295.010356,1295.010356,1295.010356,1295.010355,1295.010355,1295.010355,1295.010355,1295.010355,
   **   ~~~   ** Supply-to-demand interface deck 1 energy check value iteration history trace: 2291.117213,2291.117212,2291.117212,2291.117211,2291.117211,2291.117211,2291.117210,2291.117210,2291.117210,2291.117209,
   ** Warning ** SimHVAC: Maximum iterations (20) exceeded for all HVAC loops, at ANNUAL, 05/23 06:45 - 06:52
   **   ~~~   ** The solution for one or more of the Air Loop HVAC systems did not appear to converge
   **   ~~~   ** Air System Named = CENTRAL SYSTEM did not converge for mass flow rate
   **   ~~~   ** Check values should be zero. Most Recent values listed first.
   **   ~~~   ** Demand-to-Supply interface mass flow rate check value iteration history trace: 8.561736E-002,8.561736E-002,8.561736E-002,8.561736E-002,8.561736E-002,8.561736E-002,8.561736E-002,8.561736E-002,8.561736E-002,8.561736E-002,
   **   ~~~   ** Supply-to-demand interface deck 1 mass flow rate check value iteration history trace: 8.561736E-002,8.561736E-002,8.561736E-002,8.561736E-002,8.561736E-002,8.561736E-002,8.561736E-002,8.561736E-002,8.561736E-002,8.561736E-002,
   **   ~~~   ** Air System Named = CENTRAL SYSTEM did not converge for energy
   **   ~~~   ** Check values should be zero. Most Recent values listed first.
   **   ~~~   ** Demand-to-Supply interface energy check value iteration history trace: 1696.533137,1696.533137,1696.533137,1696.533137,1696.533136,1696.533136,1696.533136,1696.533136,1696.533136,1696.533136,
   **   ~~~   ** Supply-to-demand interface deck 1 energy check value iteration history trace: 2590.573683,2590.573683,2590.573683,2590.573683,2590.573683,2590.573682,2590.573682,2590.573682,2590.573682,2590.573682,
   ** Warning ** SimHVAC: Maximum iterations (20) exceeded for all HVAC loops, at ANNUAL, 06/17 09:00 - 09:15
   **   ~~~   ** The solution for one or more of the Air Loop HVAC systems did not appear to converge
   **   ~~~   ** Air System Named = CENTRAL SYSTEM did not converge for mass flow rate
   **   ~~~   ** Check values should be zero. Most Recent values listed first.
   **   ~~~   ** Demand-to-Supply interface mass flow rate check value iteration history trace: 5.535481E-002,5.535481E-002,5.535481E-002,5.535481E-002,5.535481E-002,5.535481E-002,5.535481E-002,5.535481E-002,5.535481E-002,5.535481E-002,
   **   ~~~   ** Supply-to-demand interface deck 1 mass flow rate check value iteration history trace: 5.535481E-002,5.535481E-002,5.535481E-002,5.535481E-002,5.535481E-002,5.535481E-002,5.535481E-002,5.535481E-002,5.535481E-002,5.535481E-002,
   **   ~~~   ** Air System Named = CENTRAL SYSTEM did not converge for energy
   **   ~~~   ** Check values should be zero. Most Recent values listed first.
   **   ~~~   ** Demand-to-Supply interface energy check value iteration history trace: 1099.090404,1099.090404,1099.090404,1099.090404,1099.090404,1099.090404,1099.090404,1099.090404,1099.090404,1099.090404,
   **   ~~~   ** Supply-to-demand interface deck 1 energy check value iteration history trace: 1941.949510,1941.949510,1941.949510,1941.949510,1941.949510,1941.949510,1941.949510,1941.949509,1941.949509,1941.949509,
   ************* Simulation Error Summary *************
   ** Warning ** The following Report Variables were requested but not generated -- check.rdd file
   **   ~~~   ** Either the IDF did not contain these elements, the variable name is misspelled,
   **   ~~~   ** or the requested variable is an advanced output which requires Output : Diagnostics, DisplayAdvancedReportVariables;
   ************* Key=*, VarName=BASEBOARD TOTAL HEATING ENERGY, Frequency=
   ************* Key=*, VarName=WATER HEATER NATURALGAS ENERGY, Frequency=
   ************* Key=*, VarName=COOLING COIL TOTAL HEATING ENERGY, Frequency=
   ************* There are 34 unused schedules in input.
   ************* There are 388 unused week schedules in input.
   ************* There are 397 unused day schedules in input.
   ************* Use Output:Diagnostics,DisplayUnusedSchedules; to see them.
   *************
   ************* ===== Recurring Error Summary =====
   ************* The following recurring error messages occurred.
   *************
   *************  ** Warning ** "TOTAL HOT WATER LOAD" - Target water temperature should be less than or equal to the hot water temperature error continues...
   *************  **   ~~~   **   This error occurred 91537 total times;
   *************  **   ~~~   **   during Warmup 0 times;
   *************  **   ~~~   **   during Sizing 0 times.
   *************  **   ~~~   **   Max=9.694376  Min=1.832487E-003
   *************
   *************  ** Warning ** SimHVAC: Exceeding Maximum iterations for all HVAC loops, during ANNUAL continues
   *************  **   ~~~   **   This error occurred 11 total times;
   *************  **   ~~~   **   during Warmup 0 times;
   *************  **   ~~~   **   during Sizing 0 times.
   *************
   *************
   ************* ===== Final Error Summary =====
   ************* The following error categories occurred.  Consider correcting or noting.
   ************* Nominally Unused Constructions
   ************* ..The nominally unused constructions warning is provided to alert you to potential conditions that can cause
   ************* ..extra time during simulation. Each construction is calculated by the algorithm indicated in the HeatBalanceAlgorithm
   ************* ..object. You may remove the constructions indicated (when you use the DisplayExtraWarnings option).
   *************
   ************* EnergyPlus Warmup Error Summary. During Warmup: 1 Warning; 0 Severe Errors.
   ************* EnergyPlus Sizing Error Summary. During Sizing: 4 Warning; 0 Severe Errors.
   ************* EnergyPlus Completed Successfully-- 91580 Warning; 0 Severe Errors; Elapsed Time=00hr 01min 31.52sec
