Program Version,EnergyPlus, Version 22.2.0-c249759bad, YMD=2023.08.02 11:55,
   ************* Beginning Zone Sizing Calculations
   ** Warning ** ProcessScheduleInput: Schedule:Constant="ALWAYS ON DISCRETE", Schedule Type Limits Name="ONOFF" not found -- will not be validated
   ** Warning ** Foundation:Kiva="KIVA FOUNDATION", no Interior Horizontal Insulation Material Name defined
   **   ~~~   ** Interior Horizontal Insulation Depth will not be used.
   ** Warning ** CheckUsedConstructions: There are 15 nominally unused constructions in input.
   **   ~~~   ** Each Unused construction is shown.
   ************* Construction=INTERIOR FLOOR
   ************* Construction=INTERIOR WINDOW
   ************* Construction=EXTERIOR DOOR
   ************* Construction=INTERIOR DOOR
   ************* Construction=GABLE CONSTRUCTION
   ************* Construction=CRAWL_FLOOR
   ************* Construction=INSULATED PIPE
   ************* Construction=PLAIN PIPE
   ************* Construction=TDD PIPE
   ************* Construction=TDD DOME
   ************* Construction=TDD DIFFUSER
   ************* Construction=CRAWL WALL
   ************* Construction=CEILING-FLOOR-LAYER
   ************* Construction=SLAB CONSTRUCTION W FULL R10 INSULATION
   ************* Construction=SLAB CONSTRUCTION W FULL R5 INSULATION
   ** Warning ** GetDXCoils: Coil:Heating:DX:SingleSpeed="DX_HEATING_COIL" curve values
   **   ~~~   ** ... Defrost Energy Input Ratio Function of Temperature Curve Name = DEFROSTEIR output is not equal to 1.0 (+ or - 10%) at rated conditions.
   **   ~~~   ** ... Curve output at rated conditions = 0.152
   ************* Beginning System Sizing Calculations
   ************* Beginning Plant Sizing Calculations
   ** Warning ** SizeDXCoil Coil:Cooling:DX:SingleSpeed DX_COOLING_COIL
   **   ~~~   ** ...Gross Rated Total Cooling Capacity [W] will be limited by the maximum rated volume flow per rated total capacity ratio.
   **   ~~~   ** ...DX coil volume flow rate ( m3/s ) = 0.422397
   **   ~~~   ** ...Requested capacity ( W ) = 6430.367
   **   ~~~   ** ...Requested flow/capacity ratio ( m3/s/W ) = 6.568E-005
   **   ~~~   ** ...Maximum flow/capacity ratio ( m3/s/W ) = 6.041E-005
   **   ~~~   ** ...Adjusted capacity ( W ) = 6992.185
   ** Warning ** Coil:WaterHeating:AirToWaterHeatPump:Wrapped "HEAT PUMP WATER HEATER EVAPORATOR": Rated air volume flow rate per watt of rated total water heating capacity is out of range
   **   ~~~   ** Min Rated Vol Flow Per Watt=[4.027E-005], Rated Vol Flow Per Watt=[1.386E-004], Max Rated Vol Flow Per Watt=[8.056E-005]. See Input-Output Reference Manual for valid range.
   ** Warning ** Water heater = WATER HEATER TANK:  Recovery Efficiency and Energy Factor could not be calculated during the test for standard ratings
   **   ~~~   ** Setpoint was never recovered and/or heater never turned on
   ** Warning ** Check input. Pump nominal power or motor efficiency is set to 0, for pump=MAINS PRESSURE
   ************* Testing Individual Branch Integrity
   ************* All Branches passed integrity testing
   ************* Testing Individual Supply Air Path Integrity
   ************* All Supply Air Paths passed integrity testing
   ************* Testing Individual Return Air Path Integrity
   ************* All Return Air Paths passed integrity testing
   ************* No node connection errors were found.
   ************* Beginning Simulation
   ** Warning ** AirflowNetwork::Solver::validate_distribution: Heat pump water heater is simulated along with an AirflowNetwork but is not included in the AirflowNetwork.
   ** Warning ** CalcEquipmentFlowRates: "TOTAL HOT WATER LOAD" - Target water temperature is greater than the hot water temperature by (2.39 C)
   **   ~~~   **  Environment=EXTREME_WINTER, at Simulation time=01/15 07:00 - 07:10
   **   ~~~   ** ...target water temperature     = 53.33 C
   **   ~~~   ** ...hot water temperature        = 50.94 C
   **   ~~~   ** ...Target water temperature should be less than or equal to the hot water temperature. Verify temperature setpoints and schedules.
   ** Warning ** SimHVAC: Maximum iterations (20) exceeded for all HVAC loops, at EXTREME_WINTER, 01/15 16:00 - 16:05
   **   ~~~   ** The solution for one or more of the Air Loop HVAC systems did not appear to converge
   **   ~~~   ** Air System Named = CENTRAL SYSTEM did not converge for mass flow rate
   **   ~~~   ** Check values should be zero. Most Recent values listed first.
   **   ~~~   ** Demand-to-Supply interface mass flow rate check value iteration history trace: 0.123148,0.123148,0.123148,0.123148,0.123148,0.123148,0.123148,0.123148,0.123148,0.123148,
   **   ~~~   ** Supply-to-demand interface deck 1 mass flow rate check value iteration history trace: 0.123148,0.123148,0.123148,0.123148,0.123148,0.123148,0.123148,0.123148,0.123148,0.123148,
   **   ~~~   ** Air System Named = CENTRAL SYSTEM did not converge for energy
   **   ~~~   ** Check values should be zero. Most Recent values listed first.
   **   ~~~   ** Demand-to-Supply interface energy check value iteration history trace: 2436.235725,2436.235721,2436.235717,2436.235712,2436.235708,2436.235704,2436.235699,2436.235695,2436.235691,2436.235686,
   **   ~~~   ** Supply-to-demand interface deck 1 energy check value iteration history trace: 3625.830466,3625.830459,3625.830453,3625.830447,3625.830440,3625.830434,3625.830427,3625.830421,3625.830414,3625.830408,
   ** Warning ** SimHVAC: Maximum iterations (20) exceeded for all HVAC loops, at EXTREME_WINTER, 01/18 13:50 - 14:00
   **   ~~~   ** The solution for one or more of the Air Loop HVAC systems did not appear to converge
   **   ~~~   ** Air System Named = CENTRAL SYSTEM did not converge for mass flow rate
   **   ~~~   ** Check values should be zero. Most Recent values listed first.
   **   ~~~   ** Demand-to-Supply interface mass flow rate check value iteration history trace: 1.054392E-002,1.054392E-002,1.054392E-002,1.054392E-002,1.054392E-002,1.054392E-002,1.054392E-002,1.054392E-002,1.054392E-002,1.054392E-002,
   **   ~~~   ** Supply-to-demand interface deck 1 mass flow rate check value iteration history trace: 1.054392E-002,1.054392E-002,1.054392E-002,1.054392E-002,1.054392E-002,1.054392E-002,1.054392E-002,1.054392E-002,1.054392E-002,1.054392E-002,
   **   ~~~   ** Air System Named = CENTRAL SYSTEM did not converge for energy
   **   ~~~   ** Check values should be zero. Most Recent values listed first.
   **   ~~~   ** Demand-to-Supply interface energy check value iteration history trace: 208.934566,208.934566,208.934566,208.934565,208.934565,208.934565,208.934564,208.934564,208.934564,208.934563,
   **   ~~~   ** Supply-to-demand interface deck 1 energy check value iteration history trace: 312.647027,312.647026,312.647026,312.647025,312.647025,312.647024,312.647023,312.647023,312.647022,312.647022,
   ** Warning ** SimHVAC: Maximum iterations (20) exceeded for all HVAC loops, at ANNUAL, 01/17 18:10 - 18:20
   **   ~~~   ** The solution for one or more of the Air Loop HVAC systems did not appear to converge
   **   ~~~   ** Air System Named = CENTRAL SYSTEM did not converge for mass flow rate
   **   ~~~   ** Check values should be zero. Most Recent values listed first.
   **   ~~~   ** Demand-to-Supply interface mass flow rate check value iteration history trace: 0.121825,0.121825,0.121825,0.121825,0.121825,0.121825,0.121825,0.121825,0.121825,0.121825,
   **   ~~~   ** Supply-to-demand interface deck 1 mass flow rate check value iteration history trace: 0.121825,0.121825,0.121825,0.121825,0.121825,0.121825,0.121825,0.121825,0.121825,0.121825,
   **   ~~~   ** Air System Named = CENTRAL SYSTEM did not converge for energy
   **   ~~~   ** Check values should be zero. Most Recent values listed first.
   **   ~~~   ** Demand-to-Supply interface energy check value iteration history trace: 2415.634325,2415.634321,2415.634317,2415.634313,2415.634309,2415.634305,2415.634301,2415.634298,2415.634294,2415.634290,
   **   ~~~   ** Supply-to-demand interface deck 1 energy check value iteration history trace: 3632.734400,3632.734395,3632.734389,3632.734383,3632.734377,3632.734371,3632.734366,3632.734360,3632.734354,3632.734348,
   ** Warning ** SimHVAC: Maximum iterations (20) exceeded for all HVAC loops, at ANNUAL, 02/06 17:20 - 17:22
   **   ~~~   ** The solution for one or more of the Air Loop HVAC systems did not appear to converge
   **   ~~~   ** Air System Named = CENTRAL SYSTEM did not converge for mass flow rate
   **   ~~~   ** Check values should be zero. Most Recent values listed first.
   **   ~~~   ** Demand-to-Supply interface mass flow rate check value iteration history trace: 0.106890,0.106890,0.106890,0.106890,0.106890,0.106890,0.106890,0.106890,0.106890,0.106890,
   **   ~~~   ** Supply-to-demand interface deck 1 mass flow rate check value iteration history trace: 0.106890,0.106890,0.106890,0.106890,0.106890,0.106890,0.106890,0.106890,0.106890,0.106890,
   **   ~~~   ** Air System Named = CENTRAL SYSTEM did not converge for energy
   **   ~~~   ** Check values should be zero. Most Recent values listed first.
   **   ~~~   ** Demand-to-Supply interface energy check value iteration history trace: 2118.188622,2118.188620,2118.188617,2118.188615,2118.188612,2118.188610,2118.188607,2118.188604,2118.188602,2118.188599,
   **   ~~~   ** Supply-to-demand interface deck 1 energy check value iteration history trace: 3182.348200,3182.348196,3182.348192,3182.348188,3182.348184,3182.348180,3182.348176,3182.348173,3182.348169,3182.348165,
   ** Warning ** SimHVAC: Maximum iterations (20) exceeded for all HVAC loops, at ANNUAL, 02/09 12:23 - 12:27
   **   ~~~   ** The solution for one or more of the Air Loop HVAC systems did not appear to converge
   **   ~~~   ** Air System Named = CENTRAL SYSTEM did not converge for mass flow rate
   **   ~~~   ** Check values should be zero. Most Recent values listed first.
   **   ~~~   ** Demand-to-Supply interface mass flow rate check value iteration history trace: 8.932841E-002,8.932841E-002,8.932841E-002,8.932841E-002,8.932841E-002,8.932841E-002,8.932841E-002,8.932841E-002,8.932841E-002,8.932841E-002,
   **   ~~~   ** Supply-to-demand interface deck 1 mass flow rate check value iteration history trace: 8.932841E-002,8.932841E-002,8.932841E-002,8.932841E-002,8.932841E-002,8.932841E-002,8.932841E-002,8.932841E-002,8.932841E-002,8.932841E-002,
   **   ~~~   ** Air System Named = CENTRAL SYSTEM did not converge for energy
   **   ~~~   ** Check values should be zero. Most Recent values listed first.
   **   ~~~   ** Demand-to-Supply interface energy check value iteration history trace: 1766.065074,1766.065072,1766.065071,1766.065069,1766.065067,1766.065065,1766.065063,1766.065061,1766.065059,1766.065058,
   **   ~~~   ** Supply-to-demand interface deck 1 energy check value iteration history trace: 2756.282130,2756.282127,2756.282124,2756.282121,2756.282118,2756.282115,2756.282112,2756.282109,2756.282106,2756.282103,
   ** Warning ** SimHVAC: Maximum iterations (20) exceeded for all HVAC loops, at ANNUAL, 02/14 12:50 - 13:00
   **   ~~~   ** The solution for one or more of the Air Loop HVAC systems did not appear to converge
   **   ~~~   ** Air System Named = CENTRAL SYSTEM did not converge for mass flow rate
   **   ~~~   ** Check values should be zero. Most Recent values listed first.
   **   ~~~   ** Demand-to-Supply interface mass flow rate check value iteration history trace: 7.400197E-002,7.400197E-002,7.400197E-002,7.400197E-002,7.400197E-002,7.400197E-002,7.400197E-002,7.400196E-002,7.400196E-002,7.400196E-002,
   **   ~~~   ** Supply-to-demand interface deck 1 mass flow rate check value iteration history trace: 7.400197E-002,7.400197E-002,7.400197E-002,7.400197E-002,7.400197E-002,7.400197E-002,7.400197E-002,7.400196E-002,7.400196E-002,7.400196E-002,
   **   ~~~   ** Air System Named = CENTRAL SYSTEM did not converge for energy
   **   ~~~   ** Check values should be zero. Most Recent values listed first.
   **   ~~~   ** Demand-to-Supply interface energy check value iteration history trace: 1466.477676,1466.477674,1466.477672,1466.477670,1466.477668,1466.477666,1466.477664,1466.477662,1466.477660,1466.477658,
   **   ~~~   ** Supply-to-demand interface deck 1 energy check value iteration history trace: 2546.865590,2546.865587,2546.865583,2546.865580,2546.865576,2546.865573,2546.865569,2546.865566,2546.865562,2546.865559,
   ** Warning ** SimHVAC: Maximum iterations (20) exceeded for all HVAC loops, at ANNUAL, 02/18 11:30 - 11:40
   **   ~~~   ** The solution for one or more of the Air Loop HVAC systems did not appear to converge
   **   ~~~   ** Air System Named = CENTRAL SYSTEM did not converge for mass flow rate
   **   ~~~   ** Check values should be zero. Most Recent values listed first.
   **   ~~~   ** Demand-to-Supply interface mass flow rate check value iteration history trace: 5.641372E-002,5.641372E-002,5.641372E-002,5.641372E-002,5.641372E-002,5.641372E-002,5.641372E-002,5.641372E-002,5.641372E-002,5.641372E-002,
   **   ~~~   ** Supply-to-demand interface deck 1 mass flow rate check value iteration history trace: 5.641372E-002,5.641372E-002,5.641372E-002,5.641372E-002,5.641372E-002,5.641372E-002,5.641372E-002,5.641372E-002,5.641372E-002,5.641372E-002,
   **   ~~~   ** Air System Named = CENTRAL SYSTEM did not converge for energy
   **   ~~~   ** Check values should be zero. Most Recent values listed first.
   **   ~~~   ** Demand-to-Supply interface energy check value iteration history trace: 1117.944392,1117.944391,1117.944390,1117.944389,1117.944388,1117.944387,1117.944386,1117.944384,1117.944383,1117.944382,
   **   ~~~   ** Supply-to-demand interface deck 1 energy check value iteration history trace: 1997.676354,1997.676353,1997.676351,1997.676349,1997.676347,1997.676345,1997.676343,1997.676342,1997.676340,1997.676338,
   ** Warning ** SimHVAC: Maximum iterations (20) exceeded for all HVAC loops, at ANNUAL, 02/24 11:50 - 12:00
   **   ~~~   ** The solution for one or more of the Air Loop HVAC systems did not appear to converge
   **   ~~~   ** Air System Named = CENTRAL SYSTEM did not converge for mass flow rate
   **   ~~~   ** Check values should be zero. Most Recent values listed first.
   **   ~~~   ** Demand-to-Supply interface mass flow rate check value iteration history trace: 9.135491E-002,9.135491E-002,9.135491E-002,9.135491E-002,9.135491E-002,9.135491E-002,9.135491E-002,9.135491E-002,9.135491E-002,9.135491E-002,
   **   ~~~   ** Supply-to-demand interface deck 1 mass flow rate check value iteration history trace: 9.135491E-002,9.135491E-002,9.135491E-002,9.135491E-002,9.135491E-002,9.135491E-002,9.135491E-002,9.135491E-002,9.135491E-002,9.135491E-002,
   **   ~~~   ** Air System Named = CENTRAL SYSTEM did not converge for energy
   **   ~~~   ** Check values should be zero. Most Recent values listed first.
   **   ~~~   ** Demand-to-Supply interface energy check value iteration history trace: 1809.409607,1809.409604,1809.409602,1809.409600,1809.409598,1809.409595,1809.409593,1809.409591,1809.409589,1809.409586,
   **   ~~~   ** Supply-to-demand interface deck 1 energy check value iteration history trace: 2835.677417,2835.677413,2835.677410,2835.677406,2835.677403,2835.677399,2835.677396,2835.677392,2835.677389,2835.677385,
   ** Warning ** SimHVAC: Maximum iterations (20) exceeded for all HVAC loops, at ANNUAL, 02/24 12:58 - 13:00
   **   ~~~   ** The solution for one or more of the Air Loop HVAC systems did not appear to converge
   **   ~~~   ** Air System Named = CENTRAL SYSTEM did not converge for mass flow rate
   **   ~~~   ** Check values should be zero. Most Recent values listed first.
   **   ~~~   ** Demand-to-Supply interface mass flow rate check value iteration history trace: 7.771856E-002,7.771856E-002,7.771856E-002,7.771856E-002,7.771856E-002,7.771856E-002,7.771856E-002,7.771856E-002,7.771856E-002,7.771856E-002,
   **   ~~~   ** Supply-to-demand interface deck 1 mass flow rate check value iteration history trace: 7.771856E-002,7.771856E-002,7.771856E-002,7.771856E-002,7.771856E-002,7.771856E-002,7.771856E-002,7.771856E-002,7.771856E-002,7.771856E-002,
   **   ~~~   ** Air System Named = CENTRAL SYSTEM did not converge for energy
   **   ~~~   ** Check values should be zero. Most Recent values listed first.
   **   ~~~   ** Demand-to-Supply interface energy check value iteration history trace: 1536.646939,1536.646937,1536.646936,1536.646934,1536.646933,1536.646931,1536.646929,1536.646928,1536.646926,1536.646925,
   **   ~~~   ** Supply-to-demand interface deck 1 energy check value iteration history trace: 2420.857632,2420.857630,2420.857627,2420.857625,2420.857622,2420.857620,2420.857618,2420.857615,2420.857613,2420.857610,
   ** Warning ** SimHVAC: Maximum iterations (20) exceeded for all HVAC loops, at ANNUAL, 03/10 12:10 - 12:20
   **   ~~~   ** The solution for one or more of the Air Loop HVAC systems did not appear to converge
   **   ~~~   ** Air System Named = CENTRAL SYSTEM did not converge for mass flow rate
   **   ~~~   ** Check values should be zero. Most Recent values listed first.
   **   ~~~   ** Demand-to-Supply interface mass flow rate check value iteration history trace: 8.374418E-002,8.374418E-002,8.374418E-002,8.374418E-002,8.374418E-002,8.374418E-002,8.374418E-002,8.374418E-002,8.374417E-002,8.374417E-002,
   **   ~~~   ** Supply-to-demand interface deck 1 mass flow rate check value iteration history trace: 8.374418E-002,8.374418E-002,8.374418E-002,8.374418E-002,8.374418E-002,8.374418E-002,8.374418E-002,8.374418E-002,8.374417E-002,8.374417E-002,
   **   ~~~   ** Air System Named = CENTRAL SYSTEM did not converge for energy
   **   ~~~   ** Check values should be zero. Most Recent values listed first.
   **   ~~~   ** Demand-to-Supply interface energy check value iteration history trace: 1661.167161,1661.167158,1661.167154,1661.167150,1661.167146,1661.167142,1661.167139,1661.167135,1661.167131,1661.167127,
   **   ~~~   ** Supply-to-demand interface deck 1 energy check value iteration history trace: 2614.376281,2614.376275,2614.376269,2614.376263,2614.376257,2614.376251,2614.376245,2614.376239,2614.376233,2614.376227,
   ** Warning ** Temperature out of range [-100. to 200.] (PsyPsatFnTemp)
   **   ~~~   **  Routine=PsyTwbFnTdbWPb, Environment=ANNUAL, at Simulation time=03/10 13:50 - 14:00
   **   ~~~   **  Input Temperature=-377.16
   ** Warning ** SimHVAC: Maximum iterations (20) exceeded for all HVAC loops, at ANNUAL, 03/29 10:07 - 10:10
   **   ~~~   ** The solution for one or more of the Air Loop HVAC systems did not appear to converge
   **   ~~~   ** Air System Named = CENTRAL SYSTEM did not converge for mass flow rate
   **   ~~~   ** Check values should be zero. Most Recent values listed first.
   **   ~~~   ** Demand-to-Supply interface mass flow rate check value iteration history trace: 8.008623E-002,8.008623E-002,8.008623E-002,8.008623E-002,8.008623E-002,8.008623E-002,8.008623E-002,8.008623E-002,8.008623E-002,8.008623E-002,
   **   ~~~   ** Supply-to-demand interface deck 1 mass flow rate check value iteration history trace: 8.008623E-002,8.008623E-002,8.008623E-002,8.008623E-002,8.008623E-002,8.008623E-002,8.008623E-002,8.008623E-002,8.008623E-002,8.008623E-002,
   **   ~~~   ** Air System Named = CENTRAL SYSTEM did not converge for energy
   **   ~~~   ** Check values should be zero. Most Recent values listed first.
   **   ~~~   ** Demand-to-Supply interface energy check value iteration history trace: 1572.514298,1572.514296,1572.514294,1572.514293,1572.514291,1572.514289,1572.514288,1572.514286,1572.514284,1572.514283,
   **   ~~~   ** Supply-to-demand interface deck 1 energy check value iteration history trace: 2759.697922,2759.697919,2759.697916,2759.697913,2759.697910,2759.697907,2759.697904,2759.697902,2759.697899,2759.697896,
   ** Warning ** SimHVAC: Maximum iterations (20) exceeded for all HVAC loops, at ANNUAL, 04/02 09:40 - 09:50
   **   ~~~   ** The solution for one or more of the Air Loop HVAC systems did not appear to converge
   **   ~~~   ** Air System Named = CENTRAL SYSTEM did not converge for mass flow rate
   **   ~~~   ** Check values should be zero. Most Recent values listed first.
   **   ~~~   ** Demand-to-Supply interface mass flow rate check value iteration history trace: 7.810897E-002,7.810897E-002,7.810897E-002,7.810897E-002,7.810897E-002,7.810897E-002,7.810897E-002,7.810897E-002,7.810897E-002,7.810897E-002,
   **   ~~~   ** Supply-to-demand interface deck 1 mass flow rate check value iteration history trace: 7.810897E-002,7.810897E-002,7.810897E-002,7.810897E-002,7.810897E-002,7.810897E-002,7.810897E-002,7.810897E-002,7.810897E-002,7.810897E-002,
   **   ~~~   ** Air System Named = CENTRAL SYSTEM did not converge for energy
   **   ~~~   ** Check values should be zero. Most Recent values listed first.
   **   ~~~   ** Demand-to-Supply interface energy check value iteration history trace: 1536.855638,1536.855637,1536.855636,1536.855635,1536.855634,1536.855633,1536.855632,1536.855631,1536.855631,1536.855630,
   **   ~~~   ** Supply-to-demand interface deck 1 energy check value iteration history trace: 2685.156008,2685.156006,2685.156005,2685.156003,2685.156001,2685.156000,2685.155998,2685.155996,2685.155995,2685.155993,
   ** Warning ** SimHVAC: Maximum iterations (20) exceeded for all HVAC loops, at ANNUAL, 04/07 20:40 - 20:50
   **   ~~~   ** The solution for one or more of the Air Loop HVAC systems did not appear to converge
   **   ~~~   ** Air System Named = CENTRAL SYSTEM did not converge for mass flow rate
   **   ~~~   ** Check values should be zero. Most Recent values listed first.
   **   ~~~   ** Demand-to-Supply interface mass flow rate check value iteration history trace: 6.284550E-002,6.284550E-002,6.284550E-002,6.284550E-002,6.284550E-002,6.284550E-002,6.284550E-002,6.284550E-002,6.284550E-002,6.284550E-002,
   **   ~~~   ** Supply-to-demand interface deck 1 mass flow rate check value iteration history trace: 6.284550E-002,6.284550E-002,6.284550E-002,6.284550E-002,6.284550E-002,6.284550E-002,6.284550E-002,6.284550E-002,6.284550E-002,6.284550E-002,
   **   ~~~   ** Air System Named = CENTRAL SYSTEM did not converge for energy
   **   ~~~   ** Check values should be zero. Most Recent values listed first.
   **   ~~~   ** Demand-to-Supply interface energy check value iteration history trace: 1244.027954,1244.027951,1244.027949,1244.027946,1244.027944,1244.027941,1244.027939,1244.027936,1244.027934,1244.027931,
   **   ~~~   ** Supply-to-demand interface deck 1 energy check value iteration history trace: 2177.788769,2177.788765,2177.788761,2177.788756,2177.788752,2177.788747,2177.788743,2177.788739,2177.788734,2177.788730,
   **   ~~~   ** Node named ZONE INLET NODE shows oscillating temperatures across iterations with a repeated value of 34.486012
   **   ~~~   ** Node named ZONE INLET NODE temperature [C] iteration history trace (most recent first): 34.486012,34.486012,34.486012,34.486012,34.486011,34.486011,34.486011,34.486011,34.486010,34.486010,
   ** Warning ** SimHVAC: Maximum iterations (20) exceeded for all HVAC loops, at ANNUAL, 04/07 21:40 - 21:45
   **   ~~~   ** The solution for one or more of the Air Loop HVAC systems did not appear to converge
   **   ~~~   ** Air System Named = CENTRAL SYSTEM did not converge for mass flow rate
   **   ~~~   ** Check values should be zero. Most Recent values listed first.
   **   ~~~   ** Demand-to-Supply interface mass flow rate check value iteration history trace: 6.232519E-002,6.232519E-002,6.232519E-002,6.232519E-002,6.232519E-002,6.232519E-002,6.232519E-002,6.232519E-002,6.232519E-002,6.232519E-002,
   **   ~~~   ** Supply-to-demand interface deck 1 mass flow rate check value iteration history trace: 6.232519E-002,6.232519E-002,6.232519E-002,6.232519E-002,6.232519E-002,6.232519E-002,6.232519E-002,6.232519E-002,6.232519E-002,6.232519E-002,
   **   ~~~   ** Air System Named = CENTRAL SYSTEM did not converge for energy
   **   ~~~   ** Check values should be zero. Most Recent values listed first.
   **   ~~~   ** Demand-to-Supply interface energy check value iteration history trace: 1235.039897,1235.039896,1235.039894,1235.039892,1235.039890,1235.039889,1235.039887,1235.039885,1235.039883,1235.039881,
   **   ~~~   ** Supply-to-demand interface deck 1 energy check value iteration history trace: 2114.110341,2114.110338,2114.110335,2114.110332,2114.110329,2114.110326,2114.110323,2114.110320,2114.110317,2114.110314,
   ************* Simulation Error Summary *************
   ** Warning ** The following Report Variables were requested but not generated -- check.rdd file
   **   ~~~   ** Either the IDF did not contain these elements, the variable name is misspelled,
   **   ~~~   ** or the requested variable is an advanced output which requires Output : Diagnostics, DisplayAdvancedReportVariables;
   ************* Key=*, VarName=WATER HEATER NATURALGAS RATE, Frequency=Hourly
   ************* There are 34 unused schedules in input.
   ************* There are 388 unused week schedules in input.
   ************* There are 396 unused day schedules in input.
   ************* Use Output:Diagnostics,DisplayUnusedSchedules; to see them.
   *************
   ************* ===== Recurring Error Summary =====
   ************* The following recurring error messages occurred.
   *************
   *************  ** Warning ** "TOTAL HOT WATER LOAD" - Target water temperature should be less than or equal to the hot water temperature error continues...
   *************  **   ~~~   **   This error occurred 164509 total times;
   *************  **   ~~~   **   during Warmup 0 times;
   *************  **   ~~~   **   during Sizing 0 times.
   *************  **   ~~~   **   Max=23.961229  Min=3.843953E-004
   *************
   *************  ** Warning ** Temperature out of range [-100. to 200.] (PsyPsatFnTemp)
   *************  **   ~~~   **   This error occurred 1 total times;
   *************  **   ~~~   **   during Warmup 0 times;
   *************  **   ~~~   **   during Sizing 0 times.
   *************  **   ~~~   **   Max=-377.168625 C  Min=-377.168625 C
   *************
   *************  ** Warning ** SimHVAC: Exceeding Maximum iterations for all HVAC loops, during ANNUAL continues
   *************  **   ~~~   **   This error occurred 13 total times;
   *************  **   ~~~   **   during Warmup 0 times;
   *************  **   ~~~   **   during Sizing 0 times.
   *************
   *************
   ************* ===== Final Error Summary =====
   ************* The following error categories occurred.  Consider correcting or noting.
   ************* Nominally Unused Constructions
   ************* ..The nominally unused constructions warning is provided to alert you to potential conditions that can cause
   ************* ..extra time during simulation. Each construction is calculated by the algorithm indicated in the HeatBalanceAlgorithm
   ************* ..object. You may remove the constructions indicated (when you use the DisplayExtraWarnings option).
   *************
   ************* EnergyPlus Warmup Error Summary. During Warmup: 1 Warning; 0 Severe Errors.
   ************* EnergyPlus Sizing Error Summary. During Sizing: 4 Warning; 0 Severe Errors.
   ************* EnergyPlus Completed Successfully-- 164548 Warning; 0 Severe Errors; Elapsed Time=00hr 01min 21.57sec
