Program Version,EnergyPlus, Version 22.2.0-c249759bad, YMD=2023.09.01 15:20,
   ************* Beginning Zone Sizing Calculations
   ** Warning ** ProcessScheduleInput: Schedule:Constant="ALWAYS ON DISCRETE", Schedule Type Limits Name="ONOFF" not found -- will not be validated
   ** Warning ** Foundation:Kiva="KIVA FOUNDATION", no Interior Horizontal Insulation Material Name defined
   **   ~~~   ** Interior Horizontal Insulation Depth will not be used.
   ** Warning ** CheckUsedConstructions: There are 15 nominally unused constructions in input.
   **   ~~~   ** Each Unused construction is shown.
   ************* Construction=INTERIOR FLOOR
   ************* Construction=INTERIOR WINDOW
   ************* Construction=EXTERIOR DOOR
   ************* Construction=INTERIOR DOOR
   ************* Construction=GABLE CONSTRUCTION
   ************* Construction=CRAWL_FLOOR
   ************* Construction=INSULATED PIPE
   ************* Construction=PLAIN PIPE
   ************* Construction=TDD PIPE
   ************* Construction=TDD DOME
   ************* Construction=TDD DIFFUSER
   ************* Construction=CRAWL WALL
   ************* Construction=CEILING-FLOOR-LAYER
   ************* Construction=SLAB CONSTRUCTION W FULL R10 INSULATION
   ************* Construction=SLAB CONSTRUCTION W FULL R5 INSULATION
   ** Warning ** GetDXCoils: Coil:Heating:DX:SingleSpeed="DX_HEATING_COIL" curve values
   **   ~~~   ** ... Defrost Energy Input Ratio Function of Temperature Curve Name = DEFROSTEIR output is not equal to 1.0 (+ or - 10%) at rated conditions.
   **   ~~~   ** ... Curve output at rated conditions = 0.152
   ************* Beginning System Sizing Calculations
   ************* Beginning Plant Sizing Calculations
   ** Warning ** Coil:WaterHeating:AirToWaterHeatPump:Wrapped "HEAT PUMP WATER HEATER EVAPORATOR": Rated air volume flow rate per watt of rated total water heating capacity is out of range
   **   ~~~   ** Min Rated Vol Flow Per Watt=[4.027E-005], Rated Vol Flow Per Watt=[1.386E-004], Max Rated Vol Flow Per Watt=[8.056E-005]. See Input-Output Reference Manual for valid range.
   ** Warning ** Water heater = WATER HEATER TANK:  Recovery Efficiency and Energy Factor could not be calculated during the test for standard ratings
   **   ~~~   ** Setpoint was never recovered and/or heater never turned on
   ** Warning ** Check input. Pump nominal power or motor efficiency is set to 0, for pump=MAINS PRESSURE
   ** Warning ** Output:Meter: invalid Key Name="ELECTRIC_RANGE:INTERIOREQUIPMENT:ELECTRICITY" - not found.
   ** Warning ** Output:Meter: invalid Key Name="ELECTRIC_DRYER:INTERIOREQUIPMENT:ELECTRICITY" - not found.
   ** Warning ** Output:Meter: invalid Key Name="HEATRECOVERY:ELECTRICITY" - not found.
   ** Warning ** Output:Meter: invalid Key Name="HEATING:NATURALGAS" - not found.
   ** Warning ** Output:Meter: invalid Key Name="WATERSYSTEMS:NATURALGAS" - not found.
   ** Warning ** Output:Meter: invalid Key Name="PROPANE:FACILITY" - not found.
   ** Warning ** Output:Meter: invalid Key Name="HEATING:PROPANE" - not found.
   ************* Testing Individual Branch Integrity
   ************* All Branches passed integrity testing
   ************* Testing Individual Supply Air Path Integrity
   ************* All Supply Air Paths passed integrity testing
   ************* Testing Individual Return Air Path Integrity
   ************* All Return Air Paths passed integrity testing
   ************* No node connection errors were found.
   ************* Beginning Simulation
   ** Warning ** AirflowNetwork::Solver::validate_distribution: Heat pump water heater is simulated along with an AirflowNetwork but is not included in the AirflowNetwork.
   ** Warning ** CalcEquipmentFlowRates: "TOTAL HOT WATER LOAD" - Target water temperature is greater than the hot water temperature by (1.64 C)
   **   ~~~   **  Environment=EXTREME_WINTER, at Simulation time=01/13 06:00 - 06:15
   **   ~~~   ** ...target water temperature     = 53.33 C
   **   ~~~   ** ...hot water temperature        = 51.69 C
   **   ~~~   ** ...Target water temperature should be less than or equal to the hot water temperature. Verify temperature setpoints and schedules.
   ** Warning ** SimHVAC: Maximum iterations (20) exceeded for all HVAC loops, at ANNUAL, 01/07 10:42 - 10:45
   **   ~~~   ** The solution for one or more of the Air Loop HVAC systems did not appear to converge
   **   ~~~   ** Air System Named = CENTRAL SYSTEM did not converge for mass flow rate
   **   ~~~   ** Check values should be zero. Most Recent values listed first.
   **   ~~~   ** Demand-to-Supply interface mass flow rate check value iteration history trace: 6.788983E-002,6.788983E-002,6.788983E-002,6.788983E-002,6.788983E-002,6.788983E-002,6.788983E-002,6.788983E-002,6.788983E-002,6.788983E-002,
   **   ~~~   ** Supply-to-demand interface deck 1 mass flow rate check value iteration history trace: 6.788983E-002,6.788983E-002,6.788983E-002,6.788983E-002,6.788983E-002,6.788983E-002,6.788983E-002,6.788983E-002,6.788983E-002,6.788983E-002,
   **   ~~~   ** Air System Named = CENTRAL SYSTEM did not converge for energy
   **   ~~~   ** Check values should be zero. Most Recent values listed first.
   **   ~~~   ** Demand-to-Supply interface energy check value iteration history trace: 1337.544484,1337.544484,1337.544484,1337.544484,1337.544484,1337.544483,1337.544483,1337.544483,1337.544483,1337.544483,
   **   ~~~   ** Supply-to-demand interface deck 1 energy check value iteration history trace: 2374.810357,2374.810357,2374.810357,2374.810357,2374.810356,2374.810356,2374.810356,2374.810356,2374.810356,2374.810356,
   ** Warning ** SimHVAC: Maximum iterations (20) exceeded for all HVAC loops, at ANNUAL, 01/08 11:00 - 11:15
   **   ~~~   ** The solution for one or more of the Air Loop HVAC systems did not appear to converge
   **   ~~~   ** Air System Named = CENTRAL SYSTEM did not converge for mass flow rate
   **   ~~~   ** Check values should be zero. Most Recent values listed first.
   **   ~~~   ** Demand-to-Supply interface mass flow rate check value iteration history trace: 5.358175E-002,5.358175E-002,5.358175E-002,5.358175E-002,5.358175E-002,5.358175E-002,5.358175E-002,5.358175E-002,5.358175E-002,5.358175E-002,
   **   ~~~   ** Supply-to-demand interface deck 1 mass flow rate check value iteration history trace: 5.358175E-002,5.358175E-002,5.358175E-002,5.358175E-002,5.358175E-002,5.358175E-002,5.358175E-002,5.358175E-002,5.358175E-002,5.358175E-002,
   **   ~~~   ** Air System Named = CENTRAL SYSTEM did not converge for energy
   **   ~~~   ** Check values should be zero. Most Recent values listed first.
   **   ~~~   ** Demand-to-Supply interface energy check value iteration history trace: 1051.037242,1051.037242,1051.037242,1051.037242,1051.037242,1051.037242,1051.037242,1051.037242,1051.037242,1051.037242,
   **   ~~~   ** Supply-to-demand interface deck 1 energy check value iteration history trace: 1951.050094,1951.050094,1951.050094,1951.050093,1951.050093,1951.050093,1951.050093,1951.050093,1951.050093,1951.050093,
   ** Warning ** SimHVAC: Maximum iterations (20) exceeded for all HVAC loops, at ANNUAL, 03/09 07:00 - 07:15
   **   ~~~   ** The solution for one or more of the Air Loop HVAC systems did not appear to converge
   **   ~~~   ** Air System Named = CENTRAL SYSTEM did not converge for mass flow rate
   **   ~~~   ** Check values should be zero. Most Recent values listed first.
   **   ~~~   ** Demand-to-Supply interface mass flow rate check value iteration history trace: 1.890447E-002,1.890447E-002,1.890447E-002,1.890447E-002,1.890447E-002,1.890447E-002,1.890447E-002,1.890447E-002,1.890447E-002,1.890447E-002,
   **   ~~~   ** Supply-to-demand interface deck 1 mass flow rate check value iteration history trace: 1.890447E-002,1.890447E-002,1.890447E-002,1.890447E-002,1.890447E-002,1.890447E-002,1.890447E-002,1.890447E-002,1.890447E-002,1.890447E-002,
   **   ~~~   ** Air System Named = CENTRAL SYSTEM did not converge for energy
   **   ~~~   ** Check values should be zero. Most Recent values listed first.
   **   ~~~   ** Demand-to-Supply interface energy check value iteration history trace: 450.615425,450.615425,450.615425,450.615425,450.615425,450.615426,450.615426,450.615426,450.615426,450.615426,
   **   ~~~   ** Supply-to-demand interface deck 1 energy check value iteration history trace: 284.489243,284.489243,284.489243,284.489243,284.489244,284.489244,284.489244,284.489244,284.489244,284.489244,
   ** Warning ** SimHVAC: Maximum iterations (20) exceeded for all HVAC loops, at ANNUAL, 03/09 08:00 - 08:15
   **   ~~~   ** The solution for one or more of the Air Loop HVAC systems did not appear to converge
   **   ~~~   ** Air System Named = CENTRAL SYSTEM did not converge for mass flow rate
   **   ~~~   ** Check values should be zero. Most Recent values listed first.
   **   ~~~   ** Demand-to-Supply interface mass flow rate check value iteration history trace: 0.134853,0.134853,0.134853,0.134853,0.134853,0.134853,0.134853,0.134853,0.134853,0.134853,
   **   ~~~   ** Supply-to-demand interface deck 1 mass flow rate check value iteration history trace: 0.134853,0.134853,0.134853,0.134853,0.134853,0.134853,0.134853,0.134853,0.134853,0.134853,
   **   ~~~   ** Air System Named = CENTRAL SYSTEM did not converge for energy
   **   ~~~   ** Check values should be zero. Most Recent values listed first.
   **   ~~~   ** Demand-to-Supply interface energy check value iteration history trace: 3225.740886,3225.740886,3225.740886,3225.740886,3225.740887,3225.740887,3225.740887,3225.740888,3225.740888,3225.740888,
   **   ~~~   ** Supply-to-demand interface deck 1 energy check value iteration history trace: 2042.103492,2042.103493,2042.103493,2042.103493,2042.103493,2042.103494,2042.103494,2042.103494,2042.103494,2042.103494,
   ** Warning ** SimHVAC: Maximum iterations (20) exceeded for all HVAC loops, at ANNUAL, 03/10 07:00 - 07:08
   **   ~~~   ** The solution for one or more of the Air Loop HVAC systems did not appear to converge
   **   ~~~   ** Air System Named = CENTRAL SYSTEM did not converge for mass flow rate
   **   ~~~   ** Check values should be zero. Most Recent values listed first.
   **   ~~~   ** Demand-to-Supply interface mass flow rate check value iteration history trace: 0.120766,0.120766,0.120766,0.120766,0.120766,0.120766,0.120766,0.120766,0.120766,0.120766,
   **   ~~~   ** Supply-to-demand interface deck 1 mass flow rate check value iteration history trace: 0.120766,0.120766,0.120766,0.120766,0.120766,0.120766,0.120766,0.120766,0.120766,0.120766,
   **   ~~~   ** Air System Named = CENTRAL SYSTEM did not converge for energy
   **   ~~~   ** Check values should be zero. Most Recent values listed first.
   **   ~~~   ** Demand-to-Supply interface energy check value iteration history trace: 2845.784070,2845.784071,2845.784072,2845.784073,2845.784074,2845.784075,2845.784077,2845.784078,2845.784079,2845.784080,
   **   ~~~   ** Supply-to-demand interface deck 1 energy check value iteration history trace: 1840.514750,1840.514751,1840.514752,1840.514753,1840.514753,1840.514754,1840.514755,1840.514756,1840.514756,1840.514757,
   ** Warning ** SimHVAC: Maximum iterations (20) exceeded for all HVAC loops, at ANNUAL, 03/12 10:06 - 10:09
   **   ~~~   ** The solution for one or more of the Air Loop HVAC systems did not appear to converge
   **   ~~~   ** Air System Named = CENTRAL SYSTEM did not converge for mass flow rate
   **   ~~~   ** Check values should be zero. Most Recent values listed first.
   **   ~~~   ** Demand-to-Supply interface mass flow rate check value iteration history trace: 1.563257E-002,1.563257E-002,1.563257E-002,1.563257E-002,1.563257E-002,1.563257E-002,1.563257E-002,1.563257E-002,1.563257E-002,1.563257E-002,
   **   ~~~   ** Supply-to-demand interface deck 1 mass flow rate check value iteration history trace: 1.563257E-002,1.563257E-002,1.563257E-002,1.563257E-002,1.563257E-002,1.563257E-002,1.563257E-002,1.563257E-002,1.563257E-002,1.563257E-002,
   **   ~~~   ** Air System Named = CENTRAL SYSTEM did not converge for energy
   **   ~~~   ** Check values should be zero. Most Recent values listed first.
   **   ~~~   ** Demand-to-Supply interface energy check value iteration history trace: 365.449884,365.449884,365.449884,365.449884,365.449884,365.449884,365.449884,365.449884,365.449885,365.449885,
   **   ~~~   ** Supply-to-demand interface deck 1 energy check value iteration history trace: 207.523001,207.523001,207.523001,207.523001,207.523001,207.523001,207.523001,207.523001,207.523001,207.523001,
   ** Warning ** SimHVAC: Maximum iterations (20) exceeded for all HVAC loops, at ANNUAL, 12/01 06:00 - 06:15
   **   ~~~   ** The solution for one or more of the Air Loop HVAC systems did not appear to converge
   **   ~~~   ** Air System Named = CENTRAL SYSTEM did not converge for mass flow rate
   **   ~~~   ** Check values should be zero. Most Recent values listed first.
   **   ~~~   ** Demand-to-Supply interface mass flow rate check value iteration history trace: 6.546871E-002,6.546871E-002,6.546871E-002,6.546871E-002,6.546871E-002,6.546871E-002,6.546871E-002,6.546871E-002,6.546871E-002,6.546871E-002,
   **   ~~~   ** Supply-to-demand interface deck 1 mass flow rate check value iteration history trace: 6.546871E-002,6.546871E-002,6.546871E-002,6.546871E-002,6.546871E-002,6.546871E-002,6.546871E-002,6.546871E-002,6.546871E-002,6.546871E-002,
   **   ~~~   ** Air System Named = CENTRAL SYSTEM did not converge for energy
   **   ~~~   ** Check values should be zero. Most Recent values listed first.
   **   ~~~   ** Demand-to-Supply interface energy check value iteration history trace: 1287.461202,1287.461202,1287.461202,1287.461202,1287.461202,1287.461202,1287.461202,1287.461201,1287.461201,1287.461201,
   **   ~~~   ** Supply-to-demand interface deck 1 energy check value iteration history trace: 2294.107311,2294.107311,2294.107311,2294.107311,2294.107311,2294.107311,2294.107311,2294.107310,2294.107310,2294.107310,
   ** Warning ** SimHVAC: Maximum iterations (20) exceeded for all HVAC loops, at ANNUAL, 12/09 09:00 - 09:05
   **   ~~~   ** The solution for one or more of the Air Loop HVAC systems did not appear to converge
   **   ~~~   ** Air System Named = CENTRAL SYSTEM did not converge for mass flow rate
   **   ~~~   ** Check values should be zero. Most Recent values listed first.
   **   ~~~   ** Demand-to-Supply interface mass flow rate check value iteration history trace: 6.030774E-002,6.030774E-002,6.030774E-002,6.030774E-002,6.030774E-002,6.030774E-002,6.030774E-002,6.030774E-002,6.030774E-002,6.030774E-002,
   **   ~~~   ** Supply-to-demand interface deck 1 mass flow rate check value iteration history trace: 6.030774E-002,6.030774E-002,6.030774E-002,6.030774E-002,6.030774E-002,6.030774E-002,6.030774E-002,6.030774E-002,6.030774E-002,6.030774E-002,
   **   ~~~   ** Air System Named = CENTRAL SYSTEM did not converge for energy
   **   ~~~   ** Check values should be zero. Most Recent values listed first.
   **   ~~~   ** Demand-to-Supply interface energy check value iteration history trace: 1187.855938,1187.855938,1187.855938,1187.855938,1187.855938,1187.855938,1187.855938,1187.855938,1187.855938,1187.855938,
   **   ~~~   ** Supply-to-demand interface deck 1 energy check value iteration history trace: 2162.647514,2162.647514,2162.647514,2162.647514,2162.647514,2162.647514,2162.647514,2162.647514,2162.647514,2162.647514,
   ** Warning ** SimHVAC: Maximum iterations (20) exceeded for all HVAC loops, at ANNUAL, 12/12 20:38 - 20:45
   **   ~~~   ** The solution for one or more of the Air Loop HVAC systems did not appear to converge
   **   ~~~   ** Air System Named = CENTRAL SYSTEM did not converge for mass flow rate
   **   ~~~   ** Check values should be zero. Most Recent values listed first.
   **   ~~~   ** Demand-to-Supply interface mass flow rate check value iteration history trace: 0.138701,0.138701,0.138701,0.138701,0.138701,0.138701,0.138701,0.138701,0.138701,0.138701,
   **   ~~~   ** Supply-to-demand interface deck 1 mass flow rate check value iteration history trace: 0.138701,0.138701,0.138701,0.138701,0.138701,0.138701,0.138701,0.138701,0.138701,0.138701,
   **   ~~~   ** Air System Named = CENTRAL SYSTEM did not converge for energy
   **   ~~~   ** Check values should be zero. Most Recent values listed first.
   **   ~~~   ** Demand-to-Supply interface energy check value iteration history trace: 3272.420209,3272.420209,3272.420210,3272.420210,3272.420210,3272.420211,3272.420211,3272.420212,3272.420212,3272.420212,
   **   ~~~   ** Supply-to-demand interface deck 1 energy check value iteration history trace: 1564.948230,1564.948230,1564.948230,1564.948231,1564.948231,1564.948231,1564.948231,1564.948231,1564.948232,1564.948232,
   ** Warning ** SimHVAC: Maximum iterations (20) exceeded for all HVAC loops, at ANNUAL, 12/21 19:53 - 20:00
   **   ~~~   ** The solution for one or more of the Air Loop HVAC systems did not appear to converge
   **   ~~~   ** Air System Named = CENTRAL SYSTEM did not converge for mass flow rate
   **   ~~~   ** Check values should be zero. Most Recent values listed first.
   **   ~~~   ** Demand-to-Supply interface mass flow rate check value iteration history trace: 0.191103,0.191103,0.191103,0.191103,0.191103,0.191103,0.191103,0.191103,0.191103,0.191103,
   **   ~~~   ** Supply-to-demand interface deck 1 mass flow rate check value iteration history trace: 0.191103,0.191103,0.191103,0.191103,0.191103,0.191103,0.191103,0.191103,0.191103,0.191103,
   **   ~~~   ** Air System Named = CENTRAL SYSTEM did not converge for energy
   **   ~~~   ** Check values should be zero. Most Recent values listed first.
   **   ~~~   ** Demand-to-Supply interface energy check value iteration history trace: 4554.496102,4554.496102,4554.496103,4554.496104,4554.496104,4554.496105,4554.496106,4554.496106,4554.496107,4554.496108,
   **   ~~~   ** Supply-to-demand interface deck 1 energy check value iteration history trace: 1964.066760,1964.066760,1964.066761,1964.066761,1964.066761,1964.066761,1964.066762,1964.066762,1964.066762,1964.066763,
   ** Warning ** SimHVAC: Maximum iterations (20) exceeded for all HVAC loops, at ANNUAL, 12/26 20:40 - 20:45
   **   ~~~   ** The solution for one or more of the Air Loop HVAC systems did not appear to converge
   **   ~~~   ** Air System Named = CENTRAL SYSTEM did not converge for mass flow rate
   **   ~~~   ** Check values should be zero. Most Recent values listed first.
   **   ~~~   ** Demand-to-Supply interface mass flow rate check value iteration history trace: 7.728904E-002,7.728904E-002,7.728904E-002,7.728904E-002,7.728904E-002,7.728904E-002,7.728904E-002,7.728904E-002,7.728904E-002,7.728904E-002,
   **   ~~~   ** Supply-to-demand interface deck 1 mass flow rate check value iteration history trace: 7.728904E-002,7.728904E-002,7.728904E-002,7.728904E-002,7.728904E-002,7.728904E-002,7.728904E-002,7.728904E-002,7.728904E-002,7.728904E-002,
   **   ~~~   ** Air System Named = CENTRAL SYSTEM did not converge for energy
   **   ~~~   ** Check values should be zero. Most Recent values listed first.
   **   ~~~   ** Demand-to-Supply interface energy check value iteration history trace: 1528.297991,1528.297991,1528.297991,1528.297991,1528.297991,1528.297991,1528.297991,1528.297991,1528.297991,1528.297991,
   **   ~~~   ** Supply-to-demand interface deck 1 energy check value iteration history trace: 2561.550879,2561.550879,2561.550879,2561.550879,2561.550879,2561.550878,2561.550878,2561.550878,2561.550878,2561.550878,
   ************* Simulation Error Summary *************
   ** Warning ** The following Report Variables were requested but not generated -- check.rdd file
   **   ~~~   ** Either the IDF did not contain these elements, the variable name is misspelled,
   **   ~~~   ** or the requested variable is an advanced output which requires Output : Diagnostics, DisplayAdvancedReportVariables;
   ************* Key=*, VarName=BASEBOARD TOTAL HEATING ENERGY, Frequency=
   ************* Key=*, VarName=WATER HEATER NATURALGAS ENERGY, Frequency=
   ************* Key=*, VarName=COOLING COIL TOTAL HEATING ENERGY, Frequency=
   ************* There are 34 unused schedules in input.
   ************* There are 388 unused week schedules in input.
   ************* There are 396 unused day schedules in input.
   ************* Use Output:Diagnostics,DisplayUnusedSchedules; to see them.
   *************
   ************* ===== Recurring Error Summary =====
   ************* The following recurring error messages occurred.
   *************
   *************  ** Warning ** "TOTAL HOT WATER LOAD" - Target water temperature should be less than or equal to the hot water temperature error continues...
   *************  **   ~~~   **   This error occurred 112987 total times;
   *************  **   ~~~   **   during Warmup 0 times;
   *************  **   ~~~   **   during Sizing 0 times.
   *************  **   ~~~   **   Max=8.422531  Min=1.511038E-005
   *************
   *************
   ************* ===== Final Error Summary =====
   ************* The following error categories occurred.  Consider correcting or noting.
   ************* Nominally Unused Constructions
   ************* ..The nominally unused constructions warning is provided to alert you to potential conditions that can cause
   ************* ..extra time during simulation. Each construction is calculated by the algorithm indicated in the HeatBalanceAlgorithm
   ************* ..object. You may remove the constructions indicated (when you use the DisplayExtraWarnings option).
   *************
   ************* EnergyPlus Warmup Error Summary. During Warmup: 1 Warning; 0 Severe Errors.
   ************* EnergyPlus Sizing Error Summary. During Sizing: 4 Warning; 0 Severe Errors.
   ************* EnergyPlus Completed Successfully-- 113015 Warning; 0 Severe Errors; Elapsed Time=00hr 05min 56.48sec
