Program Version,EnergyPlus, Version 22.2.0-c249759bad, YMD=2023.09.01 19:37,
   ************* Beginning Zone Sizing Calculations
   ** Warning ** ProcessScheduleInput: Schedule:Constant="ALWAYS ON DISCRETE", Schedule Type Limits Name="ONOFF" not found -- will not be validated
   ** Warning ** Foundation:Kiva="KIVA FOUNDATION", no Interior Horizontal Insulation Material Name defined
   **   ~~~   ** Interior Horizontal Insulation Depth will not be used.
   ** Warning ** CheckUsedConstructions: There are 15 nominally unused constructions in input.
   **   ~~~   ** Each Unused construction is shown.
   ************* Construction=INTERIOR FLOOR
   ************* Construction=INTERIOR WINDOW
   ************* Construction=EXTERIOR DOOR
   ************* Construction=INTERIOR DOOR
   ************* Construction=GABLE CONSTRUCTION
   ************* Construction=CRAWL_FLOOR
   ************* Construction=INSULATED PIPE
   ************* Construction=PLAIN PIPE
   ************* Construction=TDD PIPE
   ************* Construction=TDD DOME
   ************* Construction=TDD DIFFUSER
   ************* Construction=CRAWL WALL
   ************* Construction=CEILING-FLOOR-LAYER
   ************* Construction=SLAB CONSTRUCTION W FULL R10 INSULATION
   ************* Construction=SLAB CONSTRUCTION W FULL R5 INSULATION
   ** Warning ** GetDXCoils: Coil:Heating:DX:SingleSpeed="DX_HEATING_COIL" curve values
   **   ~~~   ** ... Defrost Energy Input Ratio Function of Temperature Curve Name = DEFROSTEIR output is not equal to 1.0 (+ or - 10%) at rated conditions.
   **   ~~~   ** ... Curve output at rated conditions = 0.152
   ************* Beginning System Sizing Calculations
   ************* Beginning Plant Sizing Calculations
   ** Warning ** Coil:WaterHeating:AirToWaterHeatPump:Wrapped "HEAT PUMP WATER HEATER EVAPORATOR": Rated air volume flow rate per watt of rated total water heating capacity is out of range
   **   ~~~   ** Min Rated Vol Flow Per Watt=[4.027E-005], Rated Vol Flow Per Watt=[1.510E-004], Max Rated Vol Flow Per Watt=[8.056E-005]. See Input-Output Reference Manual for valid range.
   ************* SizeFan: : Potential issue with equipment sizing for Fan:OnOff HEAT PUMP WATER HEATER FAN
   **   ~~~   ** User-Specified Maximum Flow Rate [m3/s] = 0.22653
   **   ~~~   ** differs from Design Size Maximum Flow Rate [m3/s] = 7.55250E-002
   **   ~~~   ** This may, or may not, indicate mismatched component sizes.
   **   ~~~   ** Verify that the value entered is intended and is consistent with other components.
   ** Warning ** Water heater = WATER HEATER TANK:  Recovery Efficiency and Energy Factor could not be calculated during the test for standard ratings
   **   ~~~   ** Setpoint was never recovered and/or heater never turned on
   ** Warning ** Check input. Pump nominal power or motor efficiency is set to 0, for pump=MAINS PRESSURE
   ** Warning ** Output:Meter: invalid Key Name="ELECTRIC_RANGE:INTERIOREQUIPMENT:ELECTRICITY" - not found.
   ** Warning ** Output:Meter: invalid Key Name="ELECTRIC_DRYER:INTERIOREQUIPMENT:ELECTRICITY" - not found.
   ** Warning ** Output:Meter: invalid Key Name="HEATRECOVERY:ELECTRICITY" - not found.
   ** Warning ** Output:Meter: invalid Key Name="HEATING:NATURALGAS" - not found.
   ** Warning ** Output:Meter: invalid Key Name="WATERSYSTEMS:NATURALGAS" - not found.
   ** Warning ** Output:Meter: invalid Key Name="PROPANE:FACILITY" - not found.
   ** Warning ** Output:Meter: invalid Key Name="HEATING:PROPANE" - not found.
   ************* Testing Individual Branch Integrity
   ************* All Branches passed integrity testing
   ************* Testing Individual Supply Air Path Integrity
   ************* All Supply Air Paths passed integrity testing
   ************* Testing Individual Return Air Path Integrity
   ************* All Return Air Paths passed integrity testing
   ************* No node connection errors were found.
   ************* Beginning Simulation
   ** Warning ** AirflowNetwork::Solver::validate_distribution: Heat pump water heater is simulated along with an AirflowNetwork but is not included in the AirflowNetwork.
   ** Warning ** CalcEquipmentFlowRates: "TOTAL HOT WATER LOAD" - Target water temperature is greater than the hot water temperature by (0.84 C)
   **   ~~~   **  Environment=EXTREME_WINTER, at Simulation time=01/15 06:00 - 06:15
   **   ~~~   ** ...target water temperature     = 53.33 C
   **   ~~~   ** ...hot water temperature        = 52.49 C
   **   ~~~   ** ...Target water temperature should be less than or equal to the hot water temperature. Verify temperature setpoints and schedules.
   ** Warning ** SimHVAC: Maximum iterations (20) exceeded for all HVAC loops, at ANNUAL, 01/12 06:45 - 07:00
   **   ~~~   ** The solution for one or more of the Air Loop HVAC systems did not appear to converge
   **   ~~~   ** Air System Named = CENTRAL SYSTEM did not converge for mass flow rate
   **   ~~~   ** Check values should be zero. Most Recent values listed first.
   **   ~~~   ** Demand-to-Supply interface mass flow rate check value iteration history trace: 6.935765E-002,6.935765E-002,6.935765E-002,6.935765E-002,6.935765E-002,6.935765E-002,6.935765E-002,6.935765E-002,6.935765E-002,6.935765E-002,
   **   ~~~   ** Supply-to-demand interface deck 1 mass flow rate check value iteration history trace: 6.935765E-002,6.935765E-002,6.935765E-002,6.935765E-002,6.935765E-002,6.935765E-002,6.935765E-002,6.935765E-002,6.935765E-002,6.935765E-002,
   **   ~~~   ** Air System Named = CENTRAL SYSTEM did not converge for energy
   **   ~~~   ** Check values should be zero. Most Recent values listed first.
   **   ~~~   ** Demand-to-Supply interface energy check value iteration history trace: 1382.823716,1382.823716,1382.823716,1382.823716,1382.823715,1382.823715,1382.823715,1382.823715,1382.823715,1382.823715,
   **   ~~~   ** Supply-to-demand interface deck 1 energy check value iteration history trace: 2353.582713,2353.582713,2353.582713,2353.582712,2353.582712,2353.582712,2353.582712,2353.582712,2353.582712,2353.582712,
   ** Warning ** SimHVAC: Maximum iterations (20) exceeded for all HVAC loops, at ANNUAL, 01/14 11:15 - 11:22
   **   ~~~   ** The solution for one or more of the Air Loop HVAC systems did not appear to converge
   **   ~~~   ** Air System Named = CENTRAL SYSTEM did not converge for mass flow rate
   **   ~~~   ** Check values should be zero. Most Recent values listed first.
   **   ~~~   ** Demand-to-Supply interface mass flow rate check value iteration history trace: 6.441085E-002,6.441085E-002,6.441085E-002,6.441085E-002,6.441085E-002,6.441085E-002,6.441085E-002,6.441085E-002,6.441085E-002,6.441085E-002,
   **   ~~~   ** Supply-to-demand interface deck 1 mass flow rate check value iteration history trace: 6.441085E-002,6.441085E-002,6.441085E-002,6.441085E-002,6.441085E-002,6.441085E-002,6.441085E-002,6.441085E-002,6.441085E-002,6.441085E-002,
   **   ~~~   ** Air System Named = CENTRAL SYSTEM did not converge for energy
   **   ~~~   ** Check values should be zero. Most Recent values listed first.
   **   ~~~   ** Demand-to-Supply interface energy check value iteration history trace: 1251.584287,1251.584287,1251.584287,1251.584287,1251.584287,1251.584287,1251.584287,1251.584287,1251.584286,1251.584286,
   **   ~~~   ** Supply-to-demand interface deck 1 energy check value iteration history trace: 2139.110794,2139.110794,2139.110794,2139.110794,2139.110793,2139.110793,2139.110793,2139.110793,2139.110793,2139.110793,
   ** Warning ** SimHVAC: Maximum iterations (20) exceeded for all HVAC loops, at ANNUAL, 01/21 12:15 - 12:20
   **   ~~~   ** The solution for one or more of the Air Loop HVAC systems did not appear to converge
   **   ~~~   ** Air System Named = CENTRAL SYSTEM did not converge for mass flow rate
   **   ~~~   ** Check values should be zero. Most Recent values listed first.
   **   ~~~   ** Demand-to-Supply interface mass flow rate check value iteration history trace: 7.279784E-002,7.279784E-002,7.279784E-002,7.279784E-002,7.279784E-002,7.279784E-002,7.279784E-002,7.279784E-002,7.279784E-002,7.279784E-002,
   **   ~~~   ** Supply-to-demand interface deck 1 mass flow rate check value iteration history trace: 7.279784E-002,7.279784E-002,7.279784E-002,7.279784E-002,7.279784E-002,7.279784E-002,7.279784E-002,7.279784E-002,7.279784E-002,7.279784E-002,
   **   ~~~   ** Air System Named = CENTRAL SYSTEM did not converge for energy
   **   ~~~   ** Check values should be zero. Most Recent values listed first.
   **   ~~~   ** Demand-to-Supply interface energy check value iteration history trace: 1442.595412,1442.595412,1442.595412,1442.595411,1442.595411,1442.595411,1442.595411,1442.595411,1442.595411,1442.595411,
   **   ~~~   ** Supply-to-demand interface deck 1 energy check value iteration history trace: 2163.745592,2163.745592,2163.745592,2163.745591,2163.745591,2163.745591,2163.745591,2163.745591,2163.745591,2163.745590,
   ** Warning ** SimHVAC: Maximum iterations (20) exceeded for all HVAC loops, at ANNUAL, 01/29 17:00 - 17:15
   **   ~~~   ** The solution for one or more of the Air Loop HVAC systems did not appear to converge
   **   ~~~   ** Air System Named = CENTRAL SYSTEM did not converge for mass flow rate
   **   ~~~   ** Check values should be zero. Most Recent values listed first.
   **   ~~~   ** Demand-to-Supply interface mass flow rate check value iteration history trace: 3.782430E-002,3.782430E-002,3.782430E-002,3.782430E-002,3.782430E-002,3.782430E-002,3.782430E-002,3.782430E-002,3.782430E-002,3.782430E-002,
   **   ~~~   ** Supply-to-demand interface deck 1 mass flow rate check value iteration history trace: 3.782430E-002,3.782430E-002,3.782430E-002,3.782430E-002,3.782430E-002,3.782430E-002,3.782430E-002,3.782430E-002,3.782430E-002,3.782430E-002,
   **   ~~~   ** Air System Named = CENTRAL SYSTEM did not converge for energy
   **   ~~~   ** Check values should be zero. Most Recent values listed first.
   **   ~~~   ** Demand-to-Supply interface energy check value iteration history trace: 741.586428,741.586428,741.586428,741.586428,741.586428,741.586428,741.586428,741.586428,741.586428,741.586428,
   **   ~~~   ** Supply-to-demand interface deck 1 energy check value iteration history trace: 1353.953158,1353.953158,1353.953158,1353.953158,1353.953158,1353.953158,1353.953158,1353.953158,1353.953158,1353.953158,
   ** Warning ** SimHVAC: Maximum iterations (20) exceeded for all HVAC loops, at ANNUAL, 02/01 12:40 - 12:45
   **   ~~~   ** The solution for one or more of the Air Loop HVAC systems did not appear to converge
   **   ~~~   ** Air System Named = CENTRAL SYSTEM did not converge for mass flow rate
   **   ~~~   ** Check values should be zero. Most Recent values listed first.
   **   ~~~   ** Demand-to-Supply interface mass flow rate check value iteration history trace: 6.908184E-002,6.908184E-002,6.908184E-002,6.908184E-002,6.908184E-002,6.908184E-002,6.908184E-002,6.908184E-002,6.908184E-002,6.908184E-002,
   **   ~~~   ** Supply-to-demand interface deck 1 mass flow rate check value iteration history trace: 6.908184E-002,6.908184E-002,6.908184E-002,6.908184E-002,6.908184E-002,6.908184E-002,6.908184E-002,6.908184E-002,6.908184E-002,6.908184E-002,
   **   ~~~   ** Air System Named = CENTRAL SYSTEM did not converge for energy
   **   ~~~   ** Check values should be zero. Most Recent values listed first.
   **   ~~~   ** Demand-to-Supply interface energy check value iteration history trace: 1368.955344,1368.955343,1368.955343,1368.955343,1368.955343,1368.955343,1368.955343,1368.955343,1368.955343,1368.955343,
   **   ~~~   ** Supply-to-demand interface deck 1 energy check value iteration history trace: 2129.730107,2129.730107,2129.730107,2129.730107,2129.730107,2129.730107,2129.730106,2129.730106,2129.730106,2129.730106,
   ** Warning ** SimHVAC: Maximum iterations (20) exceeded for all HVAC loops, at ANNUAL, 02/02 19:15 - 19:30
   **   ~~~   ** The solution for one or more of the Air Loop HVAC systems did not appear to converge
   **   ~~~   ** Air System Named = CENTRAL SYSTEM did not converge for mass flow rate
   **   ~~~   ** Check values should be zero. Most Recent values listed first.
   **   ~~~   ** Demand-to-Supply interface mass flow rate check value iteration history trace: 8.606617E-002,8.606617E-002,8.606617E-002,8.606617E-002,8.606617E-002,8.606617E-002,8.606617E-002,8.606617E-002,8.606617E-002,8.606617E-002,
   **   ~~~   ** Supply-to-demand interface deck 1 mass flow rate check value iteration history trace: 8.606617E-002,8.606617E-002,8.606617E-002,8.606617E-002,8.606617E-002,8.606617E-002,8.606617E-002,8.606617E-002,8.606617E-002,8.606617E-002,
   **   ~~~   ** Air System Named = CENTRAL SYSTEM did not converge for energy
   **   ~~~   ** Check values should be zero. Most Recent values listed first.
   **   ~~~   ** Demand-to-Supply interface energy check value iteration history trace: 1672.363239,1672.363239,1672.363239,1672.363238,1672.363238,1672.363238,1672.363238,1672.363238,1672.363238,1672.363238,
   **   ~~~   ** Supply-to-demand interface deck 1 energy check value iteration history trace: 2610.694825,2610.694824,2610.694824,2610.694824,2610.694824,2610.694824,2610.694824,2610.694823,2610.694823,2610.694823,
   ** Warning ** SimHVAC: Maximum iterations (20) exceeded for all HVAC loops, at ANNUAL, 02/03 20:45 - 21:00
   **   ~~~   ** The solution for one or more of the Air Loop HVAC systems did not appear to converge
   **   ~~~   ** Air System Named = CENTRAL SYSTEM did not converge for mass flow rate
   **   ~~~   ** Check values should be zero. Most Recent values listed first.
   **   ~~~   ** Demand-to-Supply interface mass flow rate check value iteration history trace: 6.193353E-002,6.193353E-002,6.193353E-002,6.193353E-002,6.193353E-002,6.193353E-002,6.193353E-002,6.193353E-002,6.193353E-002,6.193353E-002,
   **   ~~~   ** Supply-to-demand interface deck 1 mass flow rate check value iteration history trace: 6.193353E-002,6.193353E-002,6.193353E-002,6.193353E-002,6.193353E-002,6.193353E-002,6.193353E-002,6.193353E-002,6.193353E-002,6.193353E-002,
   **   ~~~   ** Air System Named = CENTRAL SYSTEM did not converge for energy
   **   ~~~   ** Check values should be zero. Most Recent values listed first.
   **   ~~~   ** Demand-to-Supply interface energy check value iteration history trace: 1221.997724,1221.997724,1221.997724,1221.997724,1221.997724,1221.997724,1221.997724,1221.997724,1221.997724,1221.997724,
   **   ~~~   ** Supply-to-demand interface deck 1 energy check value iteration history trace: 1805.770506,1805.770506,1805.770506,1805.770506,1805.770506,1805.770506,1805.770506,1805.770506,1805.770505,1805.770505,
   ** Warning ** SimHVAC: Maximum iterations (20) exceeded for all HVAC loops, at ANNUAL, 02/05 11:30 - 11:34
   **   ~~~   ** The solution for one or more of the Air Loop HVAC systems did not appear to converge
   **   ~~~   ** Air System Named = CENTRAL SYSTEM did not converge for mass flow rate
   **   ~~~   ** Check values should be zero. Most Recent values listed first.
   **   ~~~   ** Demand-to-Supply interface mass flow rate check value iteration history trace: 6.512333E-002,6.512333E-002,6.512333E-002,6.512333E-002,6.512333E-002,6.512333E-002,6.512333E-002,6.512333E-002,6.512333E-002,6.512333E-002,
   **   ~~~   ** Supply-to-demand interface deck 1 mass flow rate check value iteration history trace: 6.512333E-002,6.512333E-002,6.512333E-002,6.512333E-002,6.512333E-002,6.512333E-002,6.512333E-002,6.512333E-002,6.512333E-002,6.512333E-002,
   **   ~~~   ** Air System Named = CENTRAL SYSTEM did not converge for energy
   **   ~~~   ** Check values should be zero. Most Recent values listed first.
   **   ~~~   ** Demand-to-Supply interface energy check value iteration history trace: 1290.522585,1290.522585,1290.522585,1290.522585,1290.522585,1290.522585,1290.522585,1290.522585,1290.522585,1290.522585,
   **   ~~~   ** Supply-to-demand interface deck 1 energy check value iteration history trace: 2267.523781,2267.523781,2267.523781,2267.523781,2267.523781,2267.523780,2267.523780,2267.523780,2267.523780,2267.523780,
   ** Warning ** SimHVAC: Maximum iterations (20) exceeded for all HVAC loops, at ANNUAL, 02/05 12:53 - 13:00
   **   ~~~   ** The solution for one or more of the Air Loop HVAC systems did not appear to converge
   **   ~~~   ** Air System Named = CENTRAL SYSTEM did not converge for mass flow rate
   **   ~~~   ** Check values should be zero. Most Recent values listed first.
   **   ~~~   ** Demand-to-Supply interface mass flow rate check value iteration history trace: 5.136054E-002,5.136054E-002,5.136054E-002,5.136054E-002,5.136054E-002,5.136054E-002,5.136054E-002,5.136054E-002,5.136054E-002,5.136054E-002,
   **   ~~~   ** Supply-to-demand interface deck 1 mass flow rate check value iteration history trace: 5.136054E-002,5.136054E-002,5.136054E-002,5.136054E-002,5.136054E-002,5.136054E-002,5.136054E-002,5.136054E-002,5.136054E-002,5.136054E-002,
   **   ~~~   ** Air System Named = CENTRAL SYSTEM did not converge for energy
   **   ~~~   ** Check values should be zero. Most Recent values listed first.
   **   ~~~   ** Demand-to-Supply interface energy check value iteration history trace: 1006.161334,1006.161334,1006.161334,1006.161334,1006.161334,1006.161333,1006.161333,1006.161333,1006.161333,1006.161333,
   **   ~~~   ** Supply-to-demand interface deck 1 energy check value iteration history trace: 1815.368540,1815.368540,1815.368540,1815.368540,1815.368540,1815.368540,1815.368540,1815.368540,1815.368540,1815.368540,
   ** Warning ** SimHVAC: Maximum iterations (20) exceeded for all HVAC loops, at ANNUAL, 02/09 00:15 - 00:30
   **   ~~~   ** The solution for one or more of the Air Loop HVAC systems did not appear to converge
   **   ~~~   ** Air System Named = CENTRAL SYSTEM did not converge for mass flow rate
   **   ~~~   ** Check values should be zero. Most Recent values listed first.
   **   ~~~   ** Demand-to-Supply interface mass flow rate check value iteration history trace: 6.572979E-002,6.572979E-002,6.572979E-002,6.572979E-002,6.572979E-002,6.572979E-002,6.572979E-002,6.572979E-002,6.572979E-002,6.572979E-002,
   **   ~~~   ** Supply-to-demand interface deck 1 mass flow rate check value iteration history trace: 6.572979E-002,6.572979E-002,6.572979E-002,6.572979E-002,6.572979E-002,6.572979E-002,6.572979E-002,6.572979E-002,6.572979E-002,6.572979E-002,
   **   ~~~   ** Air System Named = CENTRAL SYSTEM did not converge for energy
   **   ~~~   ** Check values should be zero. Most Recent values listed first.
   **   ~~~   ** Demand-to-Supply interface energy check value iteration history trace: 1241.954258,1241.954258,1241.954258,1241.954257,1241.954257,1241.954257,1241.954257,1241.954257,1241.954257,1241.954257,
   **   ~~~   ** Supply-to-demand interface deck 1 energy check value iteration history trace: 2132.024692,2132.024692,2132.024692,2132.024692,2132.024692,2132.024692,2132.024692,2132.024692,2132.024692,2132.024692,
   ** Warning ** SimHVAC: Maximum iterations (20) exceeded for all HVAC loops, at ANNUAL, 02/13 14:20 - 14:25
   **   ~~~   ** The solution for one or more of the Air Loop HVAC systems did not appear to converge
   **   ~~~   ** Air System Named = CENTRAL SYSTEM did not converge for mass flow rate
   **   ~~~   ** Check values should be zero. Most Recent values listed first.
   **   ~~~   ** Demand-to-Supply interface mass flow rate check value iteration history trace: 6.115746E-002,6.115746E-002,6.115746E-002,6.115746E-002,6.115746E-002,6.115746E-002,6.115746E-002,6.115746E-002,6.115746E-002,6.115746E-002,
   **   ~~~   ** Supply-to-demand interface deck 1 mass flow rate check value iteration history trace: 6.115746E-002,6.115746E-002,6.115746E-002,6.115746E-002,6.115746E-002,6.115746E-002,6.115746E-002,6.115746E-002,6.115746E-002,6.115746E-002,
   **   ~~~   ** Air System Named = CENTRAL SYSTEM did not converge for energy
   **   ~~~   ** Check values should be zero. Most Recent values listed first.
   **   ~~~   ** Demand-to-Supply interface energy check value iteration history trace: 1211.713481,1211.713481,1211.713481,1211.713481,1211.713481,1211.713481,1211.713481,1211.713480,1211.713480,1211.713480,
   **   ~~~   ** Supply-to-demand interface deck 1 energy check value iteration history trace: 2074.837368,2074.837368,2074.837368,2074.837367,2074.837367,2074.837367,2074.837367,2074.837367,2074.837367,2074.837367,
   ** Warning ** SimHVAC: Maximum iterations (20) exceeded for all HVAC loops, at ANNUAL, 02/15 08:51 - 08:54
   **   ~~~   ** The solution for one or more of the Air Loop HVAC systems did not appear to converge
   **   ~~~   ** Air System Named = CENTRAL SYSTEM did not converge for mass flow rate
   **   ~~~   ** Check values should be zero. Most Recent values listed first.
   **   ~~~   ** Demand-to-Supply interface mass flow rate check value iteration history trace: 6.673382E-002,6.673382E-002,6.673382E-002,6.673382E-002,6.673382E-002,6.673382E-002,6.673382E-002,6.673382E-002,6.673382E-002,6.673382E-002,
   **   ~~~   ** Supply-to-demand interface deck 1 mass flow rate check value iteration history trace: 6.673382E-002,6.673382E-002,6.673382E-002,6.673382E-002,6.673382E-002,6.673382E-002,6.673382E-002,6.673382E-002,6.673382E-002,6.673382E-002,
   **   ~~~   ** Air System Named = CENTRAL SYSTEM did not converge for energy
   **   ~~~   ** Check values should be zero. Most Recent values listed first.
   **   ~~~   ** Demand-to-Supply interface energy check value iteration history trace: 1322.450371,1322.450371,1322.450370,1322.450370,1322.450370,1322.450370,1322.450370,1322.450370,1322.450370,1322.450370,
   **   ~~~   ** Supply-to-demand interface deck 1 energy check value iteration history trace: 2230.009974,2230.009974,2230.009974,2230.009974,2230.009973,2230.009973,2230.009973,2230.009973,2230.009973,2230.009973,
   ** Warning ** SimHVAC: Maximum iterations (20) exceeded for all HVAC loops, at ANNUAL, 02/26 17:00 - 17:15
   **   ~~~   ** The solution for one or more of the Air Loop HVAC systems did not appear to converge
   **   ~~~   ** Air System Named = CENTRAL SYSTEM did not converge for mass flow rate
   **   ~~~   ** Check values should be zero. Most Recent values listed first.
   **   ~~~   ** Demand-to-Supply interface mass flow rate check value iteration history trace: 2.094403E-002,2.094403E-002,2.094403E-002,2.094403E-002,2.094403E-002,2.094403E-002,2.094403E-002,2.094403E-002,2.094403E-002,2.094403E-002,
   **   ~~~   ** Supply-to-demand interface deck 1 mass flow rate check value iteration history trace: 2.094403E-002,2.094403E-002,2.094403E-002,2.094403E-002,2.094403E-002,2.094403E-002,2.094403E-002,2.094403E-002,2.094403E-002,2.094403E-002,
   **   ~~~   ** Air System Named = CENTRAL SYSTEM did not converge for energy
   **   ~~~   ** Check values should be zero. Most Recent values listed first.
   **   ~~~   ** Demand-to-Supply interface energy check value iteration history trace: 414.645605,414.645605,414.645605,414.645605,414.645605,414.645605,414.645605,414.645605,414.645605,414.645605,
   **   ~~~   ** Supply-to-demand interface deck 1 energy check value iteration history trace: 734.947817,734.947817,734.947817,734.947817,734.947817,734.947817,734.947817,734.947817,734.947817,734.947817,
   ** Warning ** SimHVAC: Maximum iterations (20) exceeded for all HVAC loops, at ANNUAL, 03/15 19:30 - 19:38
   **   ~~~   ** The solution for one or more of the Air Loop HVAC systems did not appear to converge
   **   ~~~   ** Air System Named = CENTRAL SYSTEM did not converge for mass flow rate
   **   ~~~   ** Check values should be zero. Most Recent values listed first.
   **   ~~~   ** Demand-to-Supply interface mass flow rate check value iteration history trace: 6.491903E-002,6.491903E-002,6.491903E-002,6.491903E-002,6.491903E-002,6.491903E-002,6.491903E-002,6.491903E-002,6.491903E-002,6.491903E-002,
   **   ~~~   ** Supply-to-demand interface deck 1 mass flow rate check value iteration history trace: 6.491903E-002,6.491903E-002,6.491903E-002,6.491903E-002,6.491903E-002,6.491903E-002,6.491903E-002,6.491903E-002,6.491903E-002,6.491903E-002,
   **   ~~~   ** Air System Named = CENTRAL SYSTEM did not converge for energy
   **   ~~~   ** Check values should be zero. Most Recent values listed first.
   **   ~~~   ** Demand-to-Supply interface energy check value iteration history trace: 1283.632806,1283.632806,1283.632806,1283.632806,1283.632806,1283.632806,1283.632806,1283.632806,1283.632806,1283.632806,
   **   ~~~   ** Supply-to-demand interface deck 1 energy check value iteration history trace: 2203.104888,2203.104888,2203.104888,2203.104888,2203.104888,2203.104888,2203.104888,2203.104888,2203.104888,2203.104887,
   ************* Simulation Error Summary *************
   ** Warning ** The following Report Variables were requested but not generated -- check.rdd file
   **   ~~~   ** Either the IDF did not contain these elements, the variable name is misspelled,
   **   ~~~   ** or the requested variable is an advanced output which requires Output : Diagnostics, DisplayAdvancedReportVariables;
   ************* Key=*, VarName=BASEBOARD TOTAL HEATING ENERGY, Frequency=
   ************* Key=*, VarName=WATER HEATER NATURALGAS ENERGY, Frequency=
   ************* Key=*, VarName=COOLING COIL TOTAL HEATING ENERGY, Frequency=
   ************* There are 34 unused schedules in input.
   ************* There are 388 unused week schedules in input.
   ************* There are 396 unused day schedules in input.
   ************* Use Output:Diagnostics,DisplayUnusedSchedules; to see them.
   *************
   ************* ===== Recurring Error Summary =====
   ************* The following recurring error messages occurred.
   *************
   *************  ** Warning ** "TOTAL HOT WATER LOAD" - Target water temperature should be less than or equal to the hot water temperature error continues...
   *************  **   ~~~   **   This error occurred 124233 total times;
   *************  **   ~~~   **   during Warmup 0 times;
   *************  **   ~~~   **   during Sizing 0 times.
   *************  **   ~~~   **   Max=9.669783  Min=5.721558E-004
   *************
   *************  ** Warning ** SimHVAC: Exceeding Maximum iterations for all HVAC loops, during ANNUAL continues
   *************  **   ~~~   **   This error occurred 7 total times;
   *************  **   ~~~   **   during Warmup 0 times;
   *************  **   ~~~   **   during Sizing 0 times.
   *************
   *************
   ************* ===== Final Error Summary =====
   ************* The following error categories occurred.  Consider correcting or noting.
   ************* Nominally Unused Constructions
   ************* ..The nominally unused constructions warning is provided to alert you to potential conditions that can cause
   ************* ..extra time during simulation. Each construction is calculated by the algorithm indicated in the HeatBalanceAlgorithm
   ************* ..object. You may remove the constructions indicated (when you use the DisplayExtraWarnings option).
   *************
   ************* EnergyPlus Warmup Error Summary. During Warmup: 1 Warning; 0 Severe Errors.
   ************* EnergyPlus Sizing Error Summary. During Sizing: 4 Warning; 0 Severe Errors.
   ************* EnergyPlus Completed Successfully-- 124271 Warning; 0 Severe Errors; Elapsed Time=00hr 01min 29.13sec
