Program Version,EnergyPlus, Version 22.2.0-c249759bad, YMD=2023.09.01 19:43,
   ************* Beginning Zone Sizing Calculations
   ** Warning ** ProcessScheduleInput: Schedule:Constant="ALWAYS ON DISCRETE", Schedule Type Limits Name="ONOFF" not found -- will not be validated
   ** Warning ** Foundation:Kiva="KIVA FOUNDATION", no Interior Horizontal Insulation Material Name defined
   **   ~~~   ** Interior Horizontal Insulation Depth will not be used.
   ** Warning ** CheckUsedConstructions: There are 15 nominally unused constructions in input.
   **   ~~~   ** Each Unused construction is shown.
   ************* Construction=INTERIOR FLOOR
   ************* Construction=INTERIOR WINDOW
   ************* Construction=EXTERIOR DOOR
   ************* Construction=INTERIOR DOOR
   ************* Construction=GABLE CONSTRUCTION
   ************* Construction=CRAWL_FLOOR
   ************* Construction=INSULATED PIPE
   ************* Construction=PLAIN PIPE
   ************* Construction=TDD PIPE
   ************* Construction=TDD DOME
   ************* Construction=TDD DIFFUSER
   ************* Construction=CRAWL WALL
   ************* Construction=CEILING-FLOOR-LAYER
   ************* Construction=SLAB CONSTRUCTION W FULL R10 INSULATION
   ************* Construction=SLAB CONSTRUCTION W FULL R5 INSULATION
   ** Warning ** GetDXCoils: Coil:Heating:DX:SingleSpeed="DX_HEATING_COIL" curve values
   **   ~~~   ** ... Defrost Energy Input Ratio Function of Temperature Curve Name = DEFROSTEIR output is not equal to 1.0 (+ or - 10%) at rated conditions.
   **   ~~~   ** ... Curve output at rated conditions = 0.152
   ************* Beginning System Sizing Calculations
   ************* Beginning Plant Sizing Calculations
   ** Warning ** Coil:WaterHeating:AirToWaterHeatPump:Wrapped "HEAT PUMP WATER HEATER EVAPORATOR": Rated air volume flow rate per watt of rated total water heating capacity is out of range
   **   ~~~   ** Min Rated Vol Flow Per Watt=[4.027E-005], Rated Vol Flow Per Watt=[1.510E-004], Max Rated Vol Flow Per Watt=[8.056E-005]. See Input-Output Reference Manual for valid range.
   ************* SizeFan: : Potential issue with equipment sizing for Fan:OnOff HEAT PUMP WATER HEATER FAN
   **   ~~~   ** User-Specified Maximum Flow Rate [m3/s] = 0.22653
   **   ~~~   ** differs from Design Size Maximum Flow Rate [m3/s] = 7.55250E-002
   **   ~~~   ** This may, or may not, indicate mismatched component sizes.
   **   ~~~   ** Verify that the value entered is intended and is consistent with other components.
   ** Warning ** Water heater = WATER HEATER TANK:  Recovery Efficiency and Energy Factor could not be calculated during the test for standard ratings
   **   ~~~   ** Setpoint was never recovered and/or heater never turned on
   ** Warning ** Check input. Pump nominal power or motor efficiency is set to 0, for pump=MAINS PRESSURE
   ** Warning ** Output:Meter: invalid Key Name="ELECTRIC_RANGE:INTERIOREQUIPMENT:ELECTRICITY" - not found.
   ** Warning ** Output:Meter: invalid Key Name="ELECTRIC_DRYER:INTERIOREQUIPMENT:ELECTRICITY" - not found.
   ** Warning ** Output:Meter: invalid Key Name="HEATRECOVERY:ELECTRICITY" - not found.
   ** Warning ** Output:Meter: invalid Key Name="HEATING:NATURALGAS" - not found.
   ** Warning ** Output:Meter: invalid Key Name="WATERSYSTEMS:NATURALGAS" - not found.
   ** Warning ** Output:Meter: invalid Key Name="PROPANE:FACILITY" - not found.
   ** Warning ** Output:Meter: invalid Key Name="HEATING:PROPANE" - not found.
   ************* Testing Individual Branch Integrity
   ************* All Branches passed integrity testing
   ************* Testing Individual Supply Air Path Integrity
   ************* All Supply Air Paths passed integrity testing
   ************* Testing Individual Return Air Path Integrity
   ************* All Return Air Paths passed integrity testing
   ************* No node connection errors were found.
   ************* Beginning Simulation
   ** Warning ** AirflowNetwork::Solver::validate_distribution: Heat pump water heater is simulated along with an AirflowNetwork but is not included in the AirflowNetwork.
   ** Warning ** CalcEquipmentFlowRates: "TOTAL HOT WATER LOAD" - Target water temperature is greater than the hot water temperature by (5.13 C)
   **   ~~~   **  Environment=EXTREME_WINTER, at Simulation time=01/08 06:00 - 06:15
   **   ~~~   ** ...target water temperature     = 53.33 C
   **   ~~~   ** ...hot water temperature        = 48.20 C
   **   ~~~   ** ...Target water temperature should be less than or equal to the hot water temperature. Verify temperature setpoints and schedules.
   ** Warning ** SimHVAC: Maximum iterations (20) exceeded for all HVAC loops, at ANNUAL, 01/05 13:30 - 13:45
   **   ~~~   ** The solution for one or more of the Air Loop HVAC systems did not appear to converge
   **   ~~~   ** Air System Named = CENTRAL SYSTEM did not converge for mass flow rate
   **   ~~~   ** Check values should be zero. Most Recent values listed first.
   **   ~~~   ** Demand-to-Supply interface mass flow rate check value iteration history trace: 7.070247E-002,7.070247E-002,7.070247E-002,7.070247E-002,7.070247E-002,7.070247E-002,7.070247E-002,7.070247E-002,7.070247E-002,7.070247E-002,
   **   ~~~   ** Supply-to-demand interface deck 1 mass flow rate check value iteration history trace: 7.070247E-002,7.070247E-002,7.070247E-002,7.070247E-002,7.070247E-002,7.070247E-002,7.070247E-002,7.070247E-002,7.070247E-002,7.070247E-002,
   **   ~~~   ** Air System Named = CENTRAL SYSTEM did not converge for energy
   **   ~~~   ** Check values should be zero. Most Recent values listed first.
   **   ~~~   ** Demand-to-Supply interface energy check value iteration history trace: 1389.017922,1389.017922,1389.017922,1389.017922,1389.017921,1389.017921,1389.017921,1389.017920,1389.017920,1389.017920,
   **   ~~~   ** Supply-to-demand interface deck 1 energy check value iteration history trace: 2186.015535,2186.015535,2186.015534,2186.015534,2186.015534,2186.015533,2186.015533,2186.015532,2186.015532,2186.015531,
   ** Warning ** SimHVAC: Maximum iterations (20) exceeded for all HVAC loops, at ANNUAL, 01/15 17:30 - 17:45
   **   ~~~   ** The solution for one or more of the Air Loop HVAC systems did not appear to converge
   **   ~~~   ** Air System Named = CENTRAL SYSTEM did not converge for mass flow rate
   **   ~~~   ** Check values should be zero. Most Recent values listed first.
   **   ~~~   ** Demand-to-Supply interface mass flow rate check value iteration history trace: 9.002093E-002,9.002093E-002,9.002093E-002,9.002093E-002,9.002093E-002,9.002093E-002,9.002093E-002,9.002093E-002,9.002093E-002,9.002093E-002,
   **   ~~~   ** Supply-to-demand interface deck 1 mass flow rate check value iteration history trace: 9.002093E-002,9.002093E-002,9.002093E-002,9.002093E-002,9.002093E-002,9.002093E-002,9.002093E-002,9.002093E-002,9.002093E-002,9.002093E-002,
   **   ~~~   ** Air System Named = CENTRAL SYSTEM did not converge for energy
   **   ~~~   ** Check values should be zero. Most Recent values listed first.
   **   ~~~   ** Demand-to-Supply interface energy check value iteration history trace: 1781.518939,1781.518938,1781.518938,1781.518938,1781.518938,1781.518938,1781.518938,1781.518938,1781.518938,1781.518938,
   **   ~~~   ** Supply-to-demand interface deck 1 energy check value iteration history trace: 2738.061721,2738.061720,2738.061720,2738.061720,2738.061720,2738.061720,2738.061719,2738.061719,2738.061719,2738.061719,
   ** Warning ** Temperature out of range [-100. to 200.] (PsyPsatFnTemp)
   **   ~~~   **  Routine=PsyTwbFnTdbWPb, Environment=ANNUAL, at Simulation time=01/19 05:30 - 05:35
   **   ~~~   **  Input Temperature=-127.09
   ** Warning ** SimHVAC: Maximum iterations (20) exceeded for all HVAC loops, at ANNUAL, 02/02 20:45 - 20:52
   **   ~~~   ** The solution for one or more of the Air Loop HVAC systems did not appear to converge
   **   ~~~   ** Air System Named = CENTRAL SYSTEM did not converge for mass flow rate
   **   ~~~   ** Check values should be zero. Most Recent values listed first.
   **   ~~~   ** Demand-to-Supply interface mass flow rate check value iteration history trace: 7.943840E-002,7.943840E-002,7.943840E-002,7.943840E-002,7.943840E-002,7.943840E-002,7.943840E-002,7.943840E-002,7.943840E-002,7.943840E-002,
   **   ~~~   ** Supply-to-demand interface deck 1 mass flow rate check value iteration history trace: 7.943840E-002,7.943840E-002,7.943840E-002,7.943840E-002,7.943840E-002,7.943840E-002,7.943840E-002,7.943840E-002,7.943840E-002,7.943840E-002,
   **   ~~~   ** Air System Named = CENTRAL SYSTEM did not converge for energy
   **   ~~~   ** Check values should be zero. Most Recent values listed first.
   **   ~~~   ** Demand-to-Supply interface energy check value iteration history trace: 1569.502385,1569.502385,1569.502385,1569.502385,1569.502385,1569.502385,1569.502384,1569.502384,1569.502384,1569.502384,
   **   ~~~   ** Supply-to-demand interface deck 1 energy check value iteration history trace: 2395.659189,2395.659189,2395.659189,2395.659188,2395.659188,2395.659188,2395.659188,2395.659188,2395.659188,2395.659187,
   ** Warning ** SimHVAC: Maximum iterations (20) exceeded for all HVAC loops, at ANNUAL, 02/09 09:45 - 09:48
   **   ~~~   ** The solution for one or more of the Air Loop HVAC systems did not appear to converge
   **   ~~~   ** Air System Named = CENTRAL SYSTEM did not converge for mass flow rate
   **   ~~~   ** Check values should be zero. Most Recent values listed first.
   **   ~~~   ** Demand-to-Supply interface mass flow rate check value iteration history trace: 6.163250E-002,6.163250E-002,6.163250E-002,6.163250E-002,6.163250E-002,6.163250E-002,6.163250E-002,6.163250E-002,6.163250E-002,6.163250E-002,
   **   ~~~   ** Supply-to-demand interface deck 1 mass flow rate check value iteration history trace: 6.163250E-002,6.163250E-002,6.163250E-002,6.163250E-002,6.163250E-002,6.163250E-002,6.163250E-002,6.163250E-002,6.163250E-002,6.163250E-002,
   **   ~~~   ** Air System Named = CENTRAL SYSTEM did not converge for energy
   **   ~~~   ** Check values should be zero. Most Recent values listed first.
   **   ~~~   ** Demand-to-Supply interface energy check value iteration history trace: 1217.982997,1217.982997,1217.982997,1217.982997,1217.982997,1217.982997,1217.982997,1217.982997,1217.982997,1217.982996,
   **   ~~~   ** Supply-to-demand interface deck 1 energy check value iteration history trace: 2070.234051,2070.234051,2070.234051,2070.234050,2070.234050,2070.234050,2070.234050,2070.234050,2070.234050,2070.234050,
   ** Warning ** SimHVAC: Maximum iterations (20) exceeded for all HVAC loops, at ANNUAL, 02/10 11:45 - 12:00
   **   ~~~   ** The solution for one or more of the Air Loop HVAC systems did not appear to converge
   **   ~~~   ** Air System Named = CENTRAL SYSTEM did not converge for mass flow rate
   **   ~~~   ** Check values should be zero. Most Recent values listed first.
   **   ~~~   ** Demand-to-Supply interface mass flow rate check value iteration history trace: 5.664301E-002,5.664301E-002,5.664301E-002,5.664301E-002,5.664301E-002,5.664301E-002,5.664301E-002,5.664301E-002,5.664301E-002,5.664301E-002,
   **   ~~~   ** Supply-to-demand interface deck 1 mass flow rate check value iteration history trace: 5.664301E-002,5.664301E-002,5.664301E-002,5.664301E-002,5.664301E-002,5.664301E-002,5.664301E-002,5.664301E-002,5.664301E-002,5.664301E-002,
   **   ~~~   ** Air System Named = CENTRAL SYSTEM did not converge for energy
   **   ~~~   ** Check values should be zero. Most Recent values listed first.
   **   ~~~   ** Demand-to-Supply interface energy check value iteration history trace: 1122.041903,1122.041903,1122.041903,1122.041903,1122.041903,1122.041903,1122.041903,1122.041903,1122.041903,1122.041903,
   **   ~~~   ** Supply-to-demand interface deck 1 energy check value iteration history trace: 1943.155626,1943.155626,1943.155626,1943.155626,1943.155626,1943.155626,1943.155626,1943.155626,1943.155626,1943.155626,
   ** Warning ** SimHVAC: Maximum iterations (20) exceeded for all HVAC loops, at ANNUAL, 02/14 18:30 - 18:45
   **   ~~~   ** The solution for one or more of the Air Loop HVAC systems did not appear to converge
   **   ~~~   ** Air System Named = CENTRAL SYSTEM did not converge for mass flow rate
   **   ~~~   ** Check values should be zero. Most Recent values listed first.
   **   ~~~   ** Demand-to-Supply interface mass flow rate check value iteration history trace: 9.960345E-002,9.960345E-002,9.960345E-002,9.960345E-002,9.960345E-002,9.960345E-002,9.960345E-002,9.960345E-002,9.960345E-002,9.960345E-002,
   **   ~~~   ** Supply-to-demand interface deck 1 mass flow rate check value iteration history trace: 9.960345E-002,9.960345E-002,9.960345E-002,9.960345E-002,9.960345E-002,9.960345E-002,9.960345E-002,9.960345E-002,9.960345E-002,9.960345E-002,
   **   ~~~   ** Air System Named = CENTRAL SYSTEM did not converge for energy
   **   ~~~   ** Check values should be zero. Most Recent values listed first.
   **   ~~~   ** Demand-to-Supply interface energy check value iteration history trace: 1973.901469,1973.901469,1973.901468,1973.901468,1973.901468,1973.901468,1973.901468,1973.901468,1973.901468,1973.901468,
   **   ~~~   ** Supply-to-demand interface deck 1 energy check value iteration history trace: 3069.461078,3069.461078,3069.461077,3069.461077,3069.461077,3069.461077,3069.461077,3069.461076,3069.461076,3069.461076,
   ** Warning ** SimHVAC: Maximum iterations (20) exceeded for all HVAC loops, at ANNUAL, 02/21 18:10 - 18:15
   **   ~~~   ** The solution for one or more of the Air Loop HVAC systems did not appear to converge
   **   ~~~   ** Air System Named = CENTRAL SYSTEM did not converge for mass flow rate
   **   ~~~   ** Check values should be zero. Most Recent values listed first.
   **   ~~~   ** Demand-to-Supply interface mass flow rate check value iteration history trace: 0.101523,0.101523,0.101523,0.101523,0.101523,0.101523,0.101523,0.101523,0.101523,0.101523,
   **   ~~~   ** Supply-to-demand interface deck 1 mass flow rate check value iteration history trace: 0.101523,0.101523,0.101523,0.101523,0.101523,0.101523,0.101523,0.101523,0.101523,0.101523,
   **   ~~~   ** Air System Named = CENTRAL SYSTEM did not converge for energy
   **   ~~~   ** Check values should be zero. Most Recent values listed first.
   **   ~~~   ** Demand-to-Supply interface energy check value iteration history trace: 2002.175161,2002.175161,2002.175161,2002.175161,2002.175161,2002.175161,2002.175161,2002.175161,2002.175161,2002.175161,
   **   ~~~   ** Supply-to-demand interface deck 1 energy check value iteration history trace: 3049.257004,3049.257004,3049.257004,3049.257004,3049.257004,3049.257004,3049.257004,3049.257004,3049.257003,3049.257003,
   ** Warning ** SimHVAC: Maximum iterations (20) exceeded for all HVAC loops, at ANNUAL, 02/21 19:45 - 19:50
   **   ~~~   ** The solution for one or more of the Air Loop HVAC systems did not appear to converge
   **   ~~~   ** Air System Named = CENTRAL SYSTEM did not converge for mass flow rate
   **   ~~~   ** Check values should be zero. Most Recent values listed first.
   **   ~~~   ** Demand-to-Supply interface mass flow rate check value iteration history trace: 9.158502E-002,9.158502E-002,9.158502E-002,9.158502E-002,9.158502E-002,9.158502E-002,9.158502E-002,9.158502E-002,9.158502E-002,9.158502E-002,
   **   ~~~   ** Supply-to-demand interface deck 1 mass flow rate check value iteration history trace: 9.158502E-002,9.158502E-002,9.158502E-002,9.158502E-002,9.158502E-002,9.158502E-002,9.158502E-002,9.158502E-002,9.158502E-002,9.158502E-002,
   **   ~~~   ** Air System Named = CENTRAL SYSTEM did not converge for energy
   **   ~~~   ** Check values should be zero. Most Recent values listed first.
   **   ~~~   ** Demand-to-Supply interface energy check value iteration history trace: 1814.662267,1814.662266,1814.662266,1814.662266,1814.662266,1814.662266,1814.662266,1814.662266,1814.662265,1814.662265,
   **   ~~~   ** Supply-to-demand interface deck 1 energy check value iteration history trace: 2715.759861,2715.759861,2715.759861,2715.759861,2715.759860,2715.759860,2715.759860,2715.759860,2715.759860,2715.759859,
   ** Warning ** SimHVAC: Maximum iterations (20) exceeded for all HVAC loops, at ANNUAL, 02/26 18:45 - 18:49
   **   ~~~   ** The solution for one or more of the Air Loop HVAC systems did not appear to converge
   **   ~~~   ** Air System Named = CENTRAL SYSTEM did not converge for mass flow rate
   **   ~~~   ** Check values should be zero. Most Recent values listed first.
   **   ~~~   ** Demand-to-Supply interface mass flow rate check value iteration history trace: 7.591287E-002,7.591287E-002,7.591287E-002,7.591287E-002,7.591287E-002,7.591287E-002,7.591287E-002,7.591287E-002,7.591287E-002,7.591287E-002,
   **   ~~~   ** Supply-to-demand interface deck 1 mass flow rate check value iteration history trace: 7.591287E-002,7.591287E-002,7.591287E-002,7.591287E-002,7.591287E-002,7.591287E-002,7.591287E-002,7.591287E-002,7.591287E-002,7.591287E-002,
   **   ~~~   ** Air System Named = CENTRAL SYSTEM did not converge for energy
   **   ~~~   ** Check values should be zero. Most Recent values listed first.
   **   ~~~   ** Demand-to-Supply interface energy check value iteration history trace: 1501.120932,1501.120932,1501.120932,1501.120932,1501.120931,1501.120931,1501.120931,1501.120931,1501.120931,1501.120931,
   **   ~~~   ** Supply-to-demand interface deck 1 energy check value iteration history trace: 2575.463732,2575.463732,2575.463732,2575.463731,2575.463731,2575.463731,2575.463731,2575.463731,2575.463731,2575.463731,
   ** Warning ** SimHVAC: Maximum iterations (20) exceeded for all HVAC loops, at ANNUAL, 03/03 11:47 - 11:49
   **   ~~~   ** The solution for one or more of the Air Loop HVAC systems did not appear to converge
   **   ~~~   ** Air System Named = CENTRAL SYSTEM did not converge for mass flow rate
   **   ~~~   ** Check values should be zero. Most Recent values listed first.
   **   ~~~   ** Demand-to-Supply interface mass flow rate check value iteration history trace: 6.906091E-002,6.906091E-002,6.906091E-002,6.906091E-002,6.906091E-002,6.906091E-002,6.906091E-002,6.906091E-002,6.906091E-002,6.906091E-002,
   **   ~~~   ** Supply-to-demand interface deck 1 mass flow rate check value iteration history trace: 6.906091E-002,6.906091E-002,6.906091E-002,6.906091E-002,6.906091E-002,6.906091E-002,6.906091E-002,6.906091E-002,6.906091E-002,6.906091E-002,
   **   ~~~   ** Air System Named = CENTRAL SYSTEM did not converge for energy
   **   ~~~   ** Check values should be zero. Most Recent values listed first.
   **   ~~~   ** Demand-to-Supply interface energy check value iteration history trace: 1368.690546,1368.690546,1368.690546,1368.690546,1368.690545,1368.690545,1368.690545,1368.690545,1368.690545,1368.690545,
   **   ~~~   ** Supply-to-demand interface deck 1 energy check value iteration history trace: 2079.389427,2079.389427,2079.389427,2079.389426,2079.389426,2079.389426,2079.389426,2079.389426,2079.389426,2079.389425,
   ** Warning ** SimHVAC: Maximum iterations (20) exceeded for all HVAC loops, at ANNUAL, 03/05 10:15 - 10:19
   **   ~~~   ** The solution for one or more of the Air Loop HVAC systems did not appear to converge
   **   ~~~   ** Air System Named = CENTRAL SYSTEM did not converge for mass flow rate
   **   ~~~   ** Check values should be zero. Most Recent values listed first.
   **   ~~~   ** Demand-to-Supply interface mass flow rate check value iteration history trace: 6.877912E-002,6.877912E-002,6.877912E-002,6.877912E-002,6.877912E-002,6.877912E-002,6.877912E-002,6.877912E-002,6.877912E-002,6.877912E-002,
   **   ~~~   ** Supply-to-demand interface deck 1 mass flow rate check value iteration history trace: 6.877912E-002,6.877912E-002,6.877912E-002,6.877912E-002,6.877912E-002,6.877912E-002,6.877912E-002,6.877912E-002,6.877912E-002,6.877912E-002,
   **   ~~~   ** Air System Named = CENTRAL SYSTEM did not converge for energy
   **   ~~~   ** Check values should be zero. Most Recent values listed first.
   **   ~~~   ** Demand-to-Supply interface energy check value iteration history trace: 1362.971911,1362.971911,1362.971911,1362.971911,1362.971911,1362.971911,1362.971911,1362.971910,1362.971910,1362.971910,
   **   ~~~   ** Supply-to-demand interface deck 1 energy check value iteration history trace: 2440.626293,2440.626293,2440.626293,2440.626293,2440.626293,2440.626293,2440.626293,2440.626293,2440.626293,2440.626292,
   ** Warning ** SimHVAC: Maximum iterations (20) exceeded for all HVAC loops, at ANNUAL, 03/07 23:10 - 23:15
   **   ~~~   ** The solution for one or more of the Air Loop HVAC systems did not appear to converge
   **   ~~~   ** Air System Named = CENTRAL SYSTEM did not converge for mass flow rate
   **   ~~~   ** Check values should be zero. Most Recent values listed first.
   **   ~~~   ** Demand-to-Supply interface mass flow rate check value iteration history trace: 8.273161E-002,8.273161E-002,8.273161E-002,8.273161E-002,8.273161E-002,8.273161E-002,8.273161E-002,8.273161E-002,8.273161E-002,8.273161E-002,
   **   ~~~   ** Supply-to-demand interface deck 1 mass flow rate check value iteration history trace: 8.273161E-002,8.273161E-002,8.273161E-002,8.273161E-002,8.273161E-002,8.273161E-002,8.273161E-002,8.273161E-002,8.273161E-002,8.273161E-002,
   **   ~~~   ** Air System Named = CENTRAL SYSTEM did not converge for energy
   **   ~~~   ** Check values should be zero. Most Recent values listed first.
   **   ~~~   ** Demand-to-Supply interface energy check value iteration history trace: 1561.801858,1561.801858,1561.801858,1561.801858,1561.801858,1561.801858,1561.801858,1561.801857,1561.801857,1561.801857,
   **   ~~~   ** Supply-to-demand interface deck 1 energy check value iteration history trace: 2440.122156,2440.122156,2440.122156,2440.122156,2440.122155,2440.122155,2440.122155,2440.122155,2440.122155,2440.122155,
   ** Warning ** SimHVAC: Maximum iterations (20) exceeded for all HVAC loops, at ANNUAL, 04/26 08:42 - 08:45
   **   ~~~   ** The solution for one or more of the Air Loop HVAC systems did not appear to converge
   **   ~~~   ** Air System Named = CENTRAL SYSTEM did not converge for mass flow rate
   **   ~~~   ** Check values should be zero. Most Recent values listed first.
   **   ~~~   ** Demand-to-Supply interface mass flow rate check value iteration history trace: 6.094653E-002,6.094653E-002,6.094653E-002,6.094653E-002,6.094653E-002,6.094653E-002,6.094653E-002,6.094653E-002,6.094653E-002,6.094653E-002,
   **   ~~~   ** Supply-to-demand interface deck 1 mass flow rate check value iteration history trace: 6.094653E-002,6.094653E-002,6.094653E-002,6.094653E-002,6.094653E-002,6.094653E-002,6.094653E-002,6.094653E-002,6.094653E-002,6.094653E-002,
   **   ~~~   ** Air System Named = CENTRAL SYSTEM did not converge for energy
   **   ~~~   ** Check values should be zero. Most Recent values listed first.
   **   ~~~   ** Demand-to-Supply interface energy check value iteration history trace: 1199.441619,1199.441619,1199.441619,1199.441619,1199.441619,1199.441619,1199.441619,1199.441619,1199.441619,1199.441619,
   **   ~~~   ** Supply-to-demand interface deck 1 energy check value iteration history trace: 2166.383910,2166.383910,2166.383910,2166.383910,2166.383910,2166.383910,2166.383910,2166.383910,2166.383910,2166.383909,
   ** Warning ** SimHVAC: Maximum iterations (20) exceeded for all HVAC loops, at ANNUAL, 04/27 07:30 - 07:38
   **   ~~~   ** The solution for one or more of the Air Loop HVAC systems did not appear to converge
   **   ~~~   ** Air System Named = CENTRAL SYSTEM did not converge for mass flow rate
   **   ~~~   ** Check values should be zero. Most Recent values listed first.
   **   ~~~   ** Demand-to-Supply interface mass flow rate check value iteration history trace: 6.266616E-002,6.266616E-002,6.266616E-002,6.266616E-002,6.266616E-002,6.266616E-002,6.266616E-002,6.266616E-002,6.266616E-002,6.266616E-002,
   **   ~~~   ** Supply-to-demand interface deck 1 mass flow rate check value iteration history trace: 6.266616E-002,6.266616E-002,6.266616E-002,6.266616E-002,6.266616E-002,6.266616E-002,6.266616E-002,6.266616E-002,6.266616E-002,6.266616E-002,
   **   ~~~   ** Air System Named = CENTRAL SYSTEM did not converge for energy
   **   ~~~   ** Check values should be zero. Most Recent values listed first.
   **   ~~~   ** Demand-to-Supply interface energy check value iteration history trace: 1238.509415,1238.509415,1238.509415,1238.509415,1238.509415,1238.509415,1238.509415,1238.509415,1238.509414,1238.509414,
   **   ~~~   ** Supply-to-demand interface deck 1 energy check value iteration history trace: 2197.029694,2197.029694,2197.029693,2197.029693,2197.029693,2197.029693,2197.029693,2197.029693,2197.029693,2197.029693,
   ************* Simulation Error Summary *************
   ** Warning ** The following Report Variables were requested but not generated -- check.rdd file
   **   ~~~   ** Either the IDF did not contain these elements, the variable name is misspelled,
   **   ~~~   ** or the requested variable is an advanced output which requires Output : Diagnostics, DisplayAdvancedReportVariables;
   ************* Key=*, VarName=BASEBOARD TOTAL HEATING ENERGY, Frequency=
   ************* Key=*, VarName=WATER HEATER NATURALGAS ENERGY, Frequency=
   ************* Key=*, VarName=COOLING COIL TOTAL HEATING ENERGY, Frequency=
   ************* There are 34 unused schedules in input.
   ************* There are 388 unused week schedules in input.
   ************* There are 396 unused day schedules in input.
   ************* Use Output:Diagnostics,DisplayUnusedSchedules; to see them.
   *************
   ************* ===== Recurring Error Summary =====
   ************* The following recurring error messages occurred.
   *************
   *************  ** Warning ** "TOTAL HOT WATER LOAD" - Target water temperature should be less than or equal to the hot water temperature error continues...
   *************  **   ~~~   **   This error occurred 122381 total times;
   *************  **   ~~~   **   during Warmup 0 times;
   *************  **   ~~~   **   during Sizing 0 times.
   *************  **   ~~~   **   Max=12.226051  Min=5.978997E-005
   *************
   *************  ** Warning ** Temperature out of range [-100. to 200.] (PsyPsatFnTemp)
   *************  **   ~~~   **   This error occurred 2 total times;
   *************  **   ~~~   **   during Warmup 0 times;
   *************  **   ~~~   **   during Sizing 0 times.
   *************  **   ~~~   **   Max=-127.095985 C  Min=-238.311241 C
   *************
   *************  ** Warning ** SimHVAC: Exceeding Maximum iterations for all HVAC loops, during ANNUAL continues
   *************  **   ~~~   **   This error occurred 10 total times;
   *************  **   ~~~   **   during Warmup 0 times;
   *************  **   ~~~   **   during Sizing 0 times.
   *************
   *************
   ************* ===== Final Error Summary =====
   ************* The following error categories occurred.  Consider correcting or noting.
   ************* Nominally Unused Constructions
   ************* ..The nominally unused constructions warning is provided to alert you to potential conditions that can cause
   ************* ..extra time during simulation. Each construction is calculated by the algorithm indicated in the HeatBalanceAlgorithm
   ************* ..object. You may remove the constructions indicated (when you use the DisplayExtraWarnings option).
   *************
   ************* EnergyPlus Warmup Error Summary. During Warmup: 1 Warning; 0 Severe Errors.
   ************* EnergyPlus Sizing Error Summary. During Sizing: 4 Warning; 0 Severe Errors.
   ************* EnergyPlus Completed Successfully-- 122424 Warning; 0 Severe Errors; Elapsed Time=00hr 01min 31.40sec
