Program Version,EnergyPlus, Version 22.2.0-c249759bad, YMD=2023.09.01 19:56,
   ************* Beginning Zone Sizing Calculations
   ** Warning ** ProcessScheduleInput: Schedule:Constant="ALWAYS ON DISCRETE", Schedule Type Limits Name="ONOFF" not found -- will not be validated
   ** Warning ** Foundation:Kiva="KIVA FOUNDATION", no Interior Horizontal Insulation Material Name defined
   **   ~~~   ** Interior Horizontal Insulation Depth will not be used.
   ** Warning ** CheckUsedConstructions: There are 15 nominally unused constructions in input.
   **   ~~~   ** Each Unused construction is shown.
   ************* Construction=INTERIOR FLOOR
   ************* Construction=INTERIOR WINDOW
   ************* Construction=EXTERIOR DOOR
   ************* Construction=INTERIOR DOOR
   ************* Construction=GABLE CONSTRUCTION
   ************* Construction=CRAWL_FLOOR
   ************* Construction=INSULATED PIPE
   ************* Construction=PLAIN PIPE
   ************* Construction=TDD PIPE
   ************* Construction=TDD DOME
   ************* Construction=TDD DIFFUSER
   ************* Construction=CRAWL WALL
   ************* Construction=CEILING-FLOOR-LAYER
   ************* Construction=SLAB CONSTRUCTION W FULL R10 INSULATION
   ************* Construction=SLAB CONSTRUCTION W FULL R5 INSULATION
   ** Warning ** GetDXCoils: Coil:Heating:DX:SingleSpeed="DX_HEATING_COIL" curve values
   **   ~~~   ** ... Defrost Energy Input Ratio Function of Temperature Curve Name = DEFROSTEIR output is not equal to 1.0 (+ or - 10%) at rated conditions.
   **   ~~~   ** ... Curve output at rated conditions = 0.152
   ************* Beginning System Sizing Calculations
   ************* Beginning Plant Sizing Calculations
   ** Warning ** Coil:WaterHeating:AirToWaterHeatPump:Wrapped "HEAT PUMP WATER HEATER EVAPORATOR": Rated air volume flow rate per watt of rated total water heating capacity is out of range
   **   ~~~   ** Min Rated Vol Flow Per Watt=[4.027E-005], Rated Vol Flow Per Watt=[1.510E-004], Max Rated Vol Flow Per Watt=[8.056E-005]. See Input-Output Reference Manual for valid range.
   ************* SizeFan: : Potential issue with equipment sizing for Fan:OnOff HEAT PUMP WATER HEATER FAN
   **   ~~~   ** User-Specified Maximum Flow Rate [m3/s] = 0.22653
   **   ~~~   ** differs from Design Size Maximum Flow Rate [m3/s] = 7.55250E-002
   **   ~~~   ** This may, or may not, indicate mismatched component sizes.
   **   ~~~   ** Verify that the value entered is intended and is consistent with other components.
   ** Warning ** Water heater = WATER HEATER TANK:  Recovery Efficiency and Energy Factor could not be calculated during the test for standard ratings
   **   ~~~   ** Setpoint was never recovered and/or heater never turned on
   ** Warning ** Check input. Pump nominal power or motor efficiency is set to 0, for pump=MAINS PRESSURE
   ** Warning ** Output:Meter: invalid Key Name="ELECTRIC_RANGE:INTERIOREQUIPMENT:ELECTRICITY" - not found.
   ** Warning ** Output:Meter: invalid Key Name="ELECTRIC_DRYER:INTERIOREQUIPMENT:ELECTRICITY" - not found.
   ** Warning ** Output:Meter: invalid Key Name="HEATRECOVERY:ELECTRICITY" - not found.
   ** Warning ** Output:Meter: invalid Key Name="HEATING:NATURALGAS" - not found.
   ** Warning ** Output:Meter: invalid Key Name="WATERSYSTEMS:NATURALGAS" - not found.
   ** Warning ** Output:Meter: invalid Key Name="PROPANE:FACILITY" - not found.
   ** Warning ** Output:Meter: invalid Key Name="HEATING:PROPANE" - not found.
   ************* Testing Individual Branch Integrity
   ************* All Branches passed integrity testing
   ************* Testing Individual Supply Air Path Integrity
   ************* All Supply Air Paths passed integrity testing
   ************* Testing Individual Return Air Path Integrity
   ************* All Return Air Paths passed integrity testing
   ************* No node connection errors were found.
   ************* Beginning Simulation
   ** Warning ** AirflowNetwork::Solver::validate_distribution: Heat pump water heater is simulated along with an AirflowNetwork but is not included in the AirflowNetwork.
   ** Warning ** CalcEquipmentFlowRates: "TOTAL HOT WATER LOAD" - Target water temperature is greater than the hot water temperature by (4.54 C)
   **   ~~~   **  Environment=EXTREME_WINTER, at Simulation time=01/29 07:00 - 07:15
   **   ~~~   ** ...target water temperature     = 53.33 C
   **   ~~~   ** ...hot water temperature        = 48.80 C
   **   ~~~   ** ...Target water temperature should be less than or equal to the hot water temperature. Verify temperature setpoints and schedules.
   ** Warning ** SimHVAC: Maximum iterations (20) exceeded for all HVAC loops, at EXTREME_WINTER, 01/29 16:15 - 16:22
   **   ~~~   ** The solution for one or more of the Air Loop HVAC systems did not appear to converge
   **   ~~~   ** Air System Named = CENTRAL SYSTEM did not converge for mass flow rate
   **   ~~~   ** Check values should be zero. Most Recent values listed first.
   **   ~~~   ** Demand-to-Supply interface mass flow rate check value iteration history trace: 7.481103E-002,7.481103E-002,7.481103E-002,7.481103E-002,7.481103E-002,7.481103E-002,7.481103E-002,7.481103E-002,7.481103E-002,7.481103E-002,
   **   ~~~   ** Supply-to-demand interface deck 1 mass flow rate check value iteration history trace: 7.481103E-002,7.481103E-002,7.481103E-002,7.481103E-002,7.481103E-002,7.481103E-002,7.481103E-002,7.481103E-002,7.481103E-002,7.481103E-002,
   **   ~~~   ** Air System Named = CENTRAL SYSTEM did not converge for energy
   **   ~~~   ** Check values should be zero. Most Recent values listed first.
   **   ~~~   ** Demand-to-Supply interface energy check value iteration history trace: 1482.932873,1482.932873,1482.932873,1482.932873,1482.932873,1482.932873,1482.932873,1482.932873,1482.932873,1482.932873,
   **   ~~~   ** Supply-to-demand interface deck 1 energy check value iteration history trace: 2548.695894,2548.695894,2548.695893,2548.695893,2548.695893,2548.695893,2548.695893,2548.695893,2548.695893,2548.695893,
   ** Warning ** SimHVAC: Maximum iterations (20) exceeded for all HVAC loops, at EXTREME_WINTER, 01/31 12:00 - 12:15
   **   ~~~   ** The solution for one or more of the Air Loop HVAC systems did not appear to converge
   **   ~~~   ** Air System Named = CENTRAL SYSTEM did not converge for mass flow rate
   **   ~~~   ** Check values should be zero. Most Recent values listed first.
   **   ~~~   ** Demand-to-Supply interface mass flow rate check value iteration history trace: 8.369233E-002,8.369233E-002,8.369233E-002,8.369233E-002,8.369233E-002,8.369233E-002,8.369233E-002,8.369233E-002,8.369233E-002,8.369233E-002,
   **   ~~~   ** Supply-to-demand interface deck 1 mass flow rate check value iteration history trace: 8.369233E-002,8.369233E-002,8.369233E-002,8.369233E-002,8.369233E-002,8.369233E-002,8.369233E-002,8.369233E-002,8.369233E-002,8.369233E-002,
   **   ~~~   ** Air System Named = CENTRAL SYSTEM did not converge for energy
   **   ~~~   ** Check values should be zero. Most Recent values listed first.
   **   ~~~   ** Demand-to-Supply interface energy check value iteration history trace: 1638.375283,1638.375283,1638.375283,1638.375283,1638.375283,1638.375283,1638.375283,1638.375283,1638.375283,1638.375282,
   **   ~~~   ** Supply-to-demand interface deck 1 energy check value iteration history trace: 2493.909076,2493.909075,2493.909075,2493.909075,2493.909075,2493.909075,2493.909075,2493.909074,2493.909074,2493.909074,
   ** Warning ** SimHVAC: Maximum iterations (20) exceeded for all HVAC loops, at ANNUAL, 01/13 08:53 - 09:00
   **   ~~~   ** The solution for one or more of the Air Loop HVAC systems did not appear to converge
   **   ~~~   ** Air System Named = CENTRAL SYSTEM did not converge for mass flow rate
   **   ~~~   ** Check values should be zero. Most Recent values listed first.
   **   ~~~   ** Demand-to-Supply interface mass flow rate check value iteration history trace: 6.727786E-002,6.727786E-002,6.727786E-002,6.727786E-002,6.727786E-002,6.727786E-002,6.727786E-002,6.727786E-002,6.727786E-002,6.727786E-002,
   **   ~~~   ** Supply-to-demand interface deck 1 mass flow rate check value iteration history trace: 6.727786E-002,6.727786E-002,6.727786E-002,6.727786E-002,6.727786E-002,6.727786E-002,6.727786E-002,6.727786E-002,6.727786E-002,6.727786E-002,
   **   ~~~   ** Air System Named = CENTRAL SYSTEM did not converge for energy
   **   ~~~   ** Check values should be zero. Most Recent values listed first.
   **   ~~~   ** Demand-to-Supply interface energy check value iteration history trace: 1339.262674,1339.262674,1339.262674,1339.262674,1339.262674,1339.262674,1339.262674,1339.262673,1339.262673,1339.262673,
   **   ~~~   ** Supply-to-demand interface deck 1 energy check value iteration history trace: 2302.563172,2302.563172,2302.563172,2302.563172,2302.563172,2302.563172,2302.563172,2302.563171,2302.563171,2302.563171,
   ** Warning ** SimHVAC: Maximum iterations (20) exceeded for all HVAC loops, at ANNUAL, 01/15 09:30 - 09:35
   **   ~~~   ** The solution for one or more of the Air Loop HVAC systems did not appear to converge
   **   ~~~   ** Air System Named = CENTRAL SYSTEM did not converge for mass flow rate
   **   ~~~   ** Check values should be zero. Most Recent values listed first.
   **   ~~~   ** Demand-to-Supply interface mass flow rate check value iteration history trace: 9.448264E-002,9.448264E-002,9.448264E-002,9.448264E-002,9.448264E-002,9.448264E-002,9.448264E-002,9.448264E-002,9.448264E-002,9.448264E-002,
   **   ~~~   ** Supply-to-demand interface deck 1 mass flow rate check value iteration history trace: 9.448264E-002,9.448264E-002,9.448264E-002,9.448264E-002,9.448264E-002,9.448264E-002,9.448264E-002,9.448264E-002,9.448264E-002,9.448264E-002,
   **   ~~~   ** Air System Named = CENTRAL SYSTEM did not converge for energy
   **   ~~~   ** Check values should be zero. Most Recent values listed first.
   **   ~~~   ** Demand-to-Supply interface energy check value iteration history trace: 1872.150791,1872.150790,1872.150790,1872.150790,1872.150790,1872.150790,1872.150790,1872.150790,1872.150790,1872.150789,
   **   ~~~   ** Supply-to-demand interface deck 1 energy check value iteration history trace: 2879.161143,2879.161142,2879.161142,2879.161142,2879.161142,2879.161142,2879.161141,2879.161141,2879.161141,2879.161141,
   ** Warning ** SimHVAC: Maximum iterations (20) exceeded for all HVAC loops, at ANNUAL, 01/17 13:45 - 14:00
   **   ~~~   ** The solution for one or more of the Air Loop HVAC systems did not appear to converge
   **   ~~~   ** Air System Named = CENTRAL SYSTEM did not converge for mass flow rate
   **   ~~~   ** Check values should be zero. Most Recent values listed first.
   **   ~~~   ** Demand-to-Supply interface mass flow rate check value iteration history trace: 5.068064E-002,5.068064E-002,5.068064E-002,5.068064E-002,5.068064E-002,5.068064E-002,5.068064E-002,5.068064E-002,5.068064E-002,5.068064E-002,
   **   ~~~   ** Supply-to-demand interface deck 1 mass flow rate check value iteration history trace: 5.068064E-002,5.068064E-002,5.068064E-002,5.068064E-002,5.068064E-002,5.068064E-002,5.068064E-002,5.068064E-002,5.068064E-002,5.068064E-002,
   **   ~~~   ** Air System Named = CENTRAL SYSTEM did not converge for energy
   **   ~~~   ** Check values should be zero. Most Recent values listed first.
   **   ~~~   ** Demand-to-Supply interface energy check value iteration history trace: 1004.126512,1004.126512,1004.126512,1004.126512,1004.126512,1004.126512,1004.126512,1004.126512,1004.126512,1004.126512,
   **   ~~~   ** Supply-to-demand interface deck 1 energy check value iteration history trace: 1785.693264,1785.693264,1785.693264,1785.693264,1785.693264,1785.693264,1785.693263,1785.693263,1785.693263,1785.693263,
   ** Warning ** SimHVAC: Maximum iterations (20) exceeded for all HVAC loops, at ANNUAL, 01/17 13:45 - 13:52
   **   ~~~   ** The solution for one or more of the Air Loop HVAC systems did not appear to converge
   **   ~~~   ** Air System Named = CENTRAL SYSTEM did not converge for mass flow rate
   **   ~~~   ** Check values should be zero. Most Recent values listed first.
   **   ~~~   ** Demand-to-Supply interface mass flow rate check value iteration history trace: 5.111023E-002,5.111023E-002,5.111023E-002,5.111023E-002,5.111023E-002,5.111023E-002,5.111023E-002,5.111023E-002,5.111023E-002,5.111023E-002,
   **   ~~~   ** Supply-to-demand interface deck 1 mass flow rate check value iteration history trace: 5.111023E-002,5.111023E-002,5.111023E-002,5.111023E-002,5.111023E-002,5.111023E-002,5.111023E-002,5.111023E-002,5.111023E-002,5.111023E-002,
   **   ~~~   ** Air System Named = CENTRAL SYSTEM did not converge for energy
   **   ~~~   ** Check values should be zero. Most Recent values listed first.
   **   ~~~   ** Demand-to-Supply interface energy check value iteration history trace: 1012.637992,1012.637992,1012.637992,1012.637992,1012.637991,1012.637991,1012.637991,1012.637991,1012.637991,1012.637991,
   **   ~~~   ** Supply-to-demand interface deck 1 energy check value iteration history trace: 1800.828177,1800.828176,1800.828176,1800.828176,1800.828176,1800.828176,1800.828176,1800.828176,1800.828176,1800.828176,
   ** Warning ** SimHVAC: Maximum iterations (20) exceeded for all HVAC loops, at ANNUAL, 01/21 10:15 - 10:30
   **   ~~~   ** The solution for one or more of the Air Loop HVAC systems did not appear to converge
   **   ~~~   ** Air System Named = CENTRAL SYSTEM did not converge for mass flow rate
   **   ~~~   ** Check values should be zero. Most Recent values listed first.
   **   ~~~   ** Demand-to-Supply interface mass flow rate check value iteration history trace: 9.973903E-002,9.973903E-002,9.973903E-002,9.973903E-002,9.973903E-002,9.973903E-002,9.973903E-002,9.973903E-002,9.973903E-002,9.973903E-002,
   **   ~~~   ** Supply-to-demand interface deck 1 mass flow rate check value iteration history trace: 9.973903E-002,9.973903E-002,9.973903E-002,9.973903E-002,9.973903E-002,9.973903E-002,9.973903E-002,9.973903E-002,9.973903E-002,9.973903E-002,
   **   ~~~   ** Air System Named = CENTRAL SYSTEM did not converge for energy
   **   ~~~   ** Check values should be zero. Most Recent values listed first.
   **   ~~~   ** Demand-to-Supply interface energy check value iteration history trace: 1976.482167,1976.482167,1976.482167,1976.482167,1976.482167,1976.482167,1976.482166,1976.482166,1976.482166,1976.482166,
   **   ~~~   ** Supply-to-demand interface deck 1 energy check value iteration history trace: 2994.050235,2994.050235,2994.050235,2994.050234,2994.050234,2994.050234,2994.050234,2994.050233,2994.050233,2994.050233,
   ** Warning ** SimHVAC: Maximum iterations (20) exceeded for all HVAC loops, at ANNUAL, 01/22 10:00 - 10:15
   **   ~~~   ** The solution for one or more of the Air Loop HVAC systems did not appear to converge
   **   ~~~   ** Air System Named = CENTRAL SYSTEM did not converge for mass flow rate
   **   ~~~   ** Check values should be zero. Most Recent values listed first.
   **   ~~~   ** Demand-to-Supply interface mass flow rate check value iteration history trace: 0.103252,0.103252,0.103252,0.103252,0.103252,0.103252,0.103252,0.103252,0.103252,0.103252,
   **   ~~~   ** Supply-to-demand interface deck 1 mass flow rate check value iteration history trace: 0.103252,0.103252,0.103252,0.103252,0.103252,0.103252,0.103252,0.103252,0.103252,0.103252,
   **   ~~~   ** Air System Named = CENTRAL SYSTEM did not converge for energy
   **   ~~~   ** Check values should be zero. Most Recent values listed first.
   **   ~~~   ** Demand-to-Supply interface energy check value iteration history trace: 2046.998738,2046.998738,2046.998737,2046.998737,2046.998737,2046.998737,2046.998737,2046.998737,2046.998737,2046.998736,
   **   ~~~   ** Supply-to-demand interface deck 1 energy check value iteration history trace: 3157.092944,3157.092944,3157.092944,3157.092943,3157.092943,3157.092943,3157.092943,3157.092943,3157.092942,3157.092942,
   ** Warning ** SimHVAC: Maximum iterations (20) exceeded for all HVAC loops, at ANNUAL, 01/24 12:30 - 12:45
   **   ~~~   ** The solution for one or more of the Air Loop HVAC systems did not appear to converge
   **   ~~~   ** Air System Named = CENTRAL SYSTEM did not converge for mass flow rate
   **   ~~~   ** Check values should be zero. Most Recent values listed first.
   **   ~~~   ** Demand-to-Supply interface mass flow rate check value iteration history trace: 5.654567E-002,5.654567E-002,5.654567E-002,5.654567E-002,5.654567E-002,5.654567E-002,5.654567E-002,5.654567E-002,5.654567E-002,5.654567E-002,
   **   ~~~   ** Supply-to-demand interface deck 1 mass flow rate check value iteration history trace: 5.654567E-002,5.654567E-002,5.654567E-002,5.654567E-002,5.654567E-002,5.654567E-002,5.654567E-002,5.654567E-002,5.654567E-002,5.654567E-002,
   **   ~~~   ** Air System Named = CENTRAL SYSTEM did not converge for energy
   **   ~~~   ** Check values should be zero. Most Recent values listed first.
   **   ~~~   ** Demand-to-Supply interface energy check value iteration history trace: 1120.882675,1120.882675,1120.882675,1120.882675,1120.882675,1120.882674,1120.882674,1120.882674,1120.882674,1120.882674,
   **   ~~~   ** Supply-to-demand interface deck 1 energy check value iteration history trace: 2030.269529,2030.269529,2030.269529,2030.269529,2030.269529,2030.269529,2030.269529,2030.269528,2030.269528,2030.269528,
   ** Warning ** SimHVAC: Maximum iterations (20) exceeded for all HVAC loops, at ANNUAL, 01/24 13:00 - 13:08
   **   ~~~   ** The solution for one or more of the Air Loop HVAC systems did not appear to converge
   **   ~~~   ** Air System Named = CENTRAL SYSTEM did not converge for mass flow rate
   **   ~~~   ** Check values should be zero. Most Recent values listed first.
   **   ~~~   ** Demand-to-Supply interface mass flow rate check value iteration history trace: 5.496827E-002,5.496827E-002,5.496827E-002,5.496827E-002,5.496827E-002,5.496827E-002,5.496827E-002,5.496827E-002,5.496827E-002,5.496827E-002,
   **   ~~~   ** Supply-to-demand interface deck 1 mass flow rate check value iteration history trace: 5.496827E-002,5.496827E-002,5.496827E-002,5.496827E-002,5.496827E-002,5.496827E-002,5.496827E-002,5.496827E-002,5.496827E-002,5.496827E-002,
   **   ~~~   ** Air System Named = CENTRAL SYSTEM did not converge for energy
   **   ~~~   ** Check values should be zero. Most Recent values listed first.
   **   ~~~   ** Demand-to-Supply interface energy check value iteration history trace: 1089.503703,1089.503703,1089.503703,1089.503703,1089.503703,1089.503703,1089.503703,1089.503703,1089.503703,1089.503703,
   **   ~~~   ** Supply-to-demand interface deck 1 energy check value iteration history trace: 1968.423142,1968.423142,1968.423142,1968.423142,1968.423142,1968.423142,1968.423142,1968.423142,1968.423142,1968.423142,
   ** Warning ** SimHVAC: Maximum iterations (20) exceeded for all HVAC loops, at ANNUAL, 01/29 17:00 - 17:15
   **   ~~~   ** The solution for one or more of the Air Loop HVAC systems did not appear to converge
   **   ~~~   ** Air System Named = CENTRAL SYSTEM did not converge for mass flow rate
   **   ~~~   ** Check values should be zero. Most Recent values listed first.
   **   ~~~   ** Demand-to-Supply interface mass flow rate check value iteration history trace: 6.618086E-002,6.618086E-002,6.618086E-002,6.618086E-002,6.618086E-002,6.618086E-002,6.618086E-002,6.618086E-002,6.618086E-002,6.618086E-002,
   **   ~~~   ** Supply-to-demand interface deck 1 mass flow rate check value iteration history trace: 6.618086E-002,6.618086E-002,6.618086E-002,6.618086E-002,6.618086E-002,6.618086E-002,6.618086E-002,6.618086E-002,6.618086E-002,6.618086E-002,
   **   ~~~   ** Air System Named = CENTRAL SYSTEM did not converge for energy
   **   ~~~   ** Check values should be zero. Most Recent values listed first.
   **   ~~~   ** Demand-to-Supply interface energy check value iteration history trace: 1311.139214,1311.139214,1311.139214,1311.139214,1311.139214,1311.139214,1311.139213,1311.139213,1311.139213,1311.139213,
   **   ~~~   ** Supply-to-demand interface deck 1 energy check value iteration history trace: 2242.063385,2242.063385,2242.063384,2242.063384,2242.063384,2242.063384,2242.063384,2242.063384,2242.063384,2242.063384,
   ** Warning ** SimHVAC: Maximum iterations (20) exceeded for all HVAC loops, at ANNUAL, 02/01 11:02 - 11:05
   **   ~~~   ** The solution for one or more of the Air Loop HVAC systems did not appear to converge
   **   ~~~   ** Air System Named = CENTRAL SYSTEM did not converge for mass flow rate
   **   ~~~   ** Check values should be zero. Most Recent values listed first.
   **   ~~~   ** Demand-to-Supply interface mass flow rate check value iteration history trace: 9.246233E-002,9.246233E-002,9.246233E-002,9.246233E-002,9.246233E-002,9.246233E-002,9.246233E-002,9.246233E-002,9.246233E-002,9.246233E-002,
   **   ~~~   ** Supply-to-demand interface deck 1 mass flow rate check value iteration history trace: 9.246233E-002,9.246233E-002,9.246233E-002,9.246233E-002,9.246233E-002,9.246233E-002,9.246233E-002,9.246233E-002,9.246233E-002,9.246233E-002,
   **   ~~~   ** Air System Named = CENTRAL SYSTEM did not converge for energy
   **   ~~~   ** Check values should be zero. Most Recent values listed first.
   **   ~~~   ** Demand-to-Supply interface energy check value iteration history trace: 1832.469601,1832.469600,1832.469600,1832.469600,1832.469600,1832.469600,1832.469600,1832.469600,1832.469599,1832.469599,
   **   ~~~   ** Supply-to-demand interface deck 1 energy check value iteration history trace: 2762.639148,2762.639148,2762.639147,2762.639147,2762.639147,2762.639147,2762.639147,2762.639146,2762.639146,2762.639146,
   ** Warning ** SimHVAC: Maximum iterations (20) exceeded for all HVAC loops, at ANNUAL, 02/12 23:15 - 23:22
   **   ~~~   ** The solution for one or more of the Air Loop HVAC systems did not appear to converge
   **   ~~~   ** Air System Named = CENTRAL SYSTEM did not converge for mass flow rate
   **   ~~~   ** Check values should be zero. Most Recent values listed first.
   **   ~~~   ** Demand-to-Supply interface mass flow rate check value iteration history trace: 5.772362E-002,5.772362E-002,5.772362E-002,5.772362E-002,5.772362E-002,5.772362E-002,5.772362E-002,5.772362E-002,5.772362E-002,5.772362E-002,
   **   ~~~   ** Supply-to-demand interface deck 1 mass flow rate check value iteration history trace: 5.772362E-002,5.772362E-002,5.772362E-002,5.772362E-002,5.772362E-002,5.772362E-002,5.772362E-002,5.772362E-002,5.772362E-002,5.772362E-002,
   **   ~~~   ** Air System Named = CENTRAL SYSTEM did not converge for energy
   **   ~~~   ** Check values should be zero. Most Recent values listed first.
   **   ~~~   ** Demand-to-Supply interface energy check value iteration history trace: 1079.396184,1079.396184,1079.396184,1079.396184,1079.396184,1079.396184,1079.396184,1079.396184,1079.396184,1079.396184,
   **   ~~~   ** Supply-to-demand interface deck 1 energy check value iteration history trace: 1874.260456,1874.260456,1874.260456,1874.260456,1874.260456,1874.260456,1874.260456,1874.260456,1874.260456,1874.260456,
   ** Warning ** SimHVAC: Maximum iterations (20) exceeded for all HVAC loops, at ANNUAL, 02/16 12:00 - 12:15
   **   ~~~   ** The solution for one or more of the Air Loop HVAC systems did not appear to converge
   **   ~~~   ** Air System Named = CENTRAL SYSTEM did not converge for mass flow rate
   **   ~~~   ** Check values should be zero. Most Recent values listed first.
   **   ~~~   ** Demand-to-Supply interface mass flow rate check value iteration history trace: 7.810668E-002,7.810668E-002,7.810668E-002,7.810668E-002,7.810668E-002,7.810668E-002,7.810668E-002,7.810668E-002,7.810668E-002,7.810668E-002,
   **   ~~~   ** Supply-to-demand interface deck 1 mass flow rate check value iteration history trace: 7.810668E-002,7.810668E-002,7.810668E-002,7.810668E-002,7.810668E-002,7.810668E-002,7.810668E-002,7.810668E-002,7.810668E-002,7.810668E-002,
   **   ~~~   ** Air System Named = CENTRAL SYSTEM did not converge for energy
   **   ~~~   ** Check values should be zero. Most Recent values listed first.
   **   ~~~   ** Demand-to-Supply interface energy check value iteration history trace: 1540.937892,1540.937892,1540.937892,1540.937892,1540.937892,1540.937892,1540.937892,1540.937892,1540.937891,1540.937891,
   **   ~~~   ** Supply-to-demand interface deck 1 energy check value iteration history trace: 2433.920130,2433.920130,2433.920130,2433.920130,2433.920130,2433.920130,2433.920129,2433.920129,2433.920129,2433.920129,
   ************* Simulation Error Summary *************
   ** Warning ** The following Report Variables were requested but not generated -- check.rdd file
   **   ~~~   ** Either the IDF did not contain these elements, the variable name is misspelled,
   **   ~~~   ** or the requested variable is an advanced output which requires Output : Diagnostics, DisplayAdvancedReportVariables;
   ************* Key=*, VarName=BASEBOARD TOTAL HEATING ENERGY, Frequency=
   ************* Key=*, VarName=WATER HEATER NATURALGAS ENERGY, Frequency=
   ************* Key=*, VarName=COOLING COIL TOTAL HEATING ENERGY, Frequency=
   ************* There are 34 unused schedules in input.
   ************* There are 388 unused week schedules in input.
   ************* There are 396 unused day schedules in input.
   ************* Use Output:Diagnostics,DisplayUnusedSchedules; to see them.
   *************
   ************* ===== Recurring Error Summary =====
   ************* The following recurring error messages occurred.
   *************
   *************  ** Warning ** "TOTAL HOT WATER LOAD" - Target water temperature should be less than or equal to the hot water temperature error continues...
   *************  **   ~~~   **   This error occurred 193669 total times;
   *************  **   ~~~   **   during Warmup 0 times;
   *************  **   ~~~   **   during Sizing 0 times.
   *************  **   ~~~   **   Max=12.239791  Min=1.927049E-004
   *************
   *************  ** Warning ** SimHVAC: Exceeding Maximum iterations for all HVAC loops, during ANNUAL continues
   *************  **   ~~~   **   This error occurred 30 total times;
   *************  **   ~~~   **   during Warmup 0 times;
   *************  **   ~~~   **   during Sizing 0 times.
   *************
   *************
   ************* ===== Final Error Summary =====
   ************* The following error categories occurred.  Consider correcting or noting.
   ************* Nominally Unused Constructions
   ************* ..The nominally unused constructions warning is provided to alert you to potential conditions that can cause
   ************* ..extra time during simulation. Each construction is calculated by the algorithm indicated in the HeatBalanceAlgorithm
   ************* ..object. You may remove the constructions indicated (when you use the DisplayExtraWarnings option).
   *************
   ************* EnergyPlus Warmup Error Summary. During Warmup: 1 Warning; 0 Severe Errors.
   ************* EnergyPlus Sizing Error Summary. During Sizing: 4 Warning; 0 Severe Errors.
   ************* EnergyPlus Completed Successfully-- 193730 Warning; 0 Severe Errors; Elapsed Time=00hr 01min 50.26sec
