Program Version,EnergyPlus, Version 22.2.0-c249759bad, YMD=2023.09.01 19:45,
   ************* Beginning Zone Sizing Calculations
   ** Warning ** ProcessScheduleInput: Schedule:Constant="ALWAYS ON DISCRETE", Schedule Type Limits Name="ONOFF" not found -- will not be validated
   ** Warning ** Foundation:Kiva="KIVA FOUNDATION", no Interior Horizontal Insulation Material Name defined
   **   ~~~   ** Interior Horizontal Insulation Depth will not be used.
   ** Warning ** CheckUsedConstructions: There are 15 nominally unused constructions in input.
   **   ~~~   ** Each Unused construction is shown.
   ************* Construction=INTERIOR FLOOR
   ************* Construction=INTERIOR WINDOW
   ************* Construction=EXTERIOR DOOR
   ************* Construction=INTERIOR DOOR
   ************* Construction=GABLE CONSTRUCTION
   ************* Construction=CRAWL_FLOOR
   ************* Construction=INSULATED PIPE
   ************* Construction=PLAIN PIPE
   ************* Construction=TDD PIPE
   ************* Construction=TDD DOME
   ************* Construction=TDD DIFFUSER
   ************* Construction=CRAWL WALL
   ************* Construction=CEILING-FLOOR-LAYER
   ************* Construction=SLAB CONSTRUCTION W FULL R10 INSULATION
   ************* Construction=SLAB CONSTRUCTION W FULL R5 INSULATION
   ** Warning ** GetDXCoils: Coil:Heating:DX:SingleSpeed="DX_HEATING_COIL" curve values
   **   ~~~   ** ... Defrost Energy Input Ratio Function of Temperature Curve Name = DEFROSTEIR output is not equal to 1.0 (+ or - 10%) at rated conditions.
   **   ~~~   ** ... Curve output at rated conditions = 0.152
   ************* Beginning System Sizing Calculations
   ************* Beginning Plant Sizing Calculations
   ** Warning ** Coil:WaterHeating:AirToWaterHeatPump:Wrapped "HEAT PUMP WATER HEATER EVAPORATOR": Rated air volume flow rate per watt of rated total water heating capacity is out of range
   **   ~~~   ** Min Rated Vol Flow Per Watt=[4.027E-005], Rated Vol Flow Per Watt=[1.510E-004], Max Rated Vol Flow Per Watt=[8.056E-005]. See Input-Output Reference Manual for valid range.
   ************* SizeFan: : Potential issue with equipment sizing for Fan:OnOff HEAT PUMP WATER HEATER FAN
   **   ~~~   ** User-Specified Maximum Flow Rate [m3/s] = 0.22653
   **   ~~~   ** differs from Design Size Maximum Flow Rate [m3/s] = 7.55250E-002
   **   ~~~   ** This may, or may not, indicate mismatched component sizes.
   **   ~~~   ** Verify that the value entered is intended and is consistent with other components.
   ** Warning ** Water heater = WATER HEATER TANK:  Recovery Efficiency and Energy Factor could not be calculated during the test for standard ratings
   **   ~~~   ** Setpoint was never recovered and/or heater never turned on
   ** Warning ** Check input. Pump nominal power or motor efficiency is set to 0, for pump=MAINS PRESSURE
   ** Warning ** AirflowNetwork::Solver::validate_distribution: Heat pump water heater is simulated along with an AirflowNetwork but is not included in the AirflowNetwork.
   ** Warning ** Output:Meter: invalid Key Name="ELECTRIC_RANGE:INTERIOREQUIPMENT:ELECTRICITY" - not found.
   ** Warning ** Output:Meter: invalid Key Name="ELECTRIC_DRYER:INTERIOREQUIPMENT:ELECTRICITY" - not found.
   ** Warning ** Output:Meter: invalid Key Name="HEATRECOVERY:ELECTRICITY" - not found.
   ** Warning ** Output:Meter: invalid Key Name="HEATING:NATURALGAS" - not found.
   ** Warning ** Output:Meter: invalid Key Name="WATERSYSTEMS:NATURALGAS" - not found.
   ** Warning ** Output:Meter: invalid Key Name="PROPANE:FACILITY" - not found.
   ** Warning ** Output:Meter: invalid Key Name="HEATING:PROPANE" - not found.
   ************* Testing Individual Branch Integrity
   ************* All Branches passed integrity testing
   ************* Testing Individual Supply Air Path Integrity
   ************* All Supply Air Paths passed integrity testing
   ************* Testing Individual Return Air Path Integrity
   ************* All Return Air Paths passed integrity testing
   ************* No node connection errors were found.
   ************* Beginning Simulation
   ** Warning ** CalcEquipmentFlowRates: "TOTAL HOT WATER LOAD" - Target water temperature is greater than the hot water temperature by (2.51 C)
   **   ~~~   **  Environment=EXTREME_WINTER, at Simulation time=02/17 06:00 - 06:15
   **   ~~~   ** ...target water temperature     = 53.33 C
   **   ~~~   ** ...hot water temperature        = 50.82 C
   **   ~~~   ** ...Target water temperature should be less than or equal to the hot water temperature. Verify temperature setpoints and schedules.
   ** Warning ** SimHVAC: Maximum iterations (20) exceeded for all HVAC loops, at ANNUAL, 01/02 18:30 - 18:45
   **   ~~~   ** The solution for one or more of the Air Loop HVAC systems did not appear to converge
   **   ~~~   ** Air System Named = CENTRAL SYSTEM did not converge for mass flow rate
   **   ~~~   ** Check values should be zero. Most Recent values listed first.
   **   ~~~   ** Demand-to-Supply interface mass flow rate check value iteration history trace: 9.649323E-002,9.649323E-002,9.649323E-002,9.649323E-002,9.649323E-002,9.649323E-002,9.649323E-002,9.649323E-002,9.649323E-002,9.649323E-002,
   **   ~~~   ** Supply-to-demand interface deck 1 mass flow rate check value iteration history trace: 9.649323E-002,9.649323E-002,9.649323E-002,9.649323E-002,9.649323E-002,9.649323E-002,9.649323E-002,9.649323E-002,9.649323E-002,9.649323E-002,
   **   ~~~   ** Air System Named = CENTRAL SYSTEM did not converge for energy
   **   ~~~   ** Check values should be zero. Most Recent values listed first.
   **   ~~~   ** Demand-to-Supply interface energy check value iteration history trace: 1901.247849,1901.247849,1901.247849,1901.247849,1901.247849,1901.247848,1901.247848,1901.247848,1901.247848,1901.247848,
   **   ~~~   ** Supply-to-demand interface deck 1 energy check value iteration history trace: 2878.630723,2878.630723,2878.630723,2878.630722,2878.630722,2878.630722,2878.630722,2878.630722,2878.630721,2878.630721,
   ** Warning ** SimHVAC: Maximum iterations (20) exceeded for all HVAC loops, at ANNUAL, 02/04 10:30 - 10:34
   **   ~~~   ** The solution for one or more of the Air Loop HVAC systems did not appear to converge
   **   ~~~   ** Air System Named = CENTRAL SYSTEM did not converge for mass flow rate
   **   ~~~   ** Check values should be zero. Most Recent values listed first.
   **   ~~~   ** Demand-to-Supply interface mass flow rate check value iteration history trace: 5.917113E-002,5.917113E-002,5.917113E-002,5.917113E-002,5.917113E-002,5.917113E-002,5.917113E-002,5.917113E-002,5.917113E-002,5.917113E-002,
   **   ~~~   ** Supply-to-demand interface deck 1 mass flow rate check value iteration history trace: 5.917113E-002,5.917113E-002,5.917113E-002,5.917113E-002,5.917113E-002,5.917113E-002,5.917113E-002,5.917113E-002,5.917113E-002,5.917113E-002,
   **   ~~~   ** Air System Named = CENTRAL SYSTEM did not converge for energy
   **   ~~~   ** Check values should be zero. Most Recent values listed first.
   **   ~~~   ** Demand-to-Supply interface energy check value iteration history trace: 1169.931840,1169.931840,1169.931840,1169.931840,1169.931840,1169.931839,1169.931839,1169.931839,1169.931839,1169.931839,
   **   ~~~   ** Supply-to-demand interface deck 1 energy check value iteration history trace: 2138.194654,2138.194654,2138.194654,2138.194654,2138.194654,2138.194654,2138.194654,2138.194654,2138.194654,2138.194654,
   **   ~~~   ** Node named ZONE INLET NODE shows oscillating temperatures across iterations with a repeated value of 35.961582
   **   ~~~   ** Node named ZONE INLET NODE temperature [C] iteration history trace (most recent first): 35.961582,35.961582,35.961582,35.961582,35.961581,35.961581,35.961581,35.961581,35.961580,35.961580,
   ** Warning ** SimHVAC: Maximum iterations (20) exceeded for all HVAC loops, at ANNUAL, 02/07 23:30 - 23:45
   **   ~~~   ** The solution for one or more of the Air Loop HVAC systems did not appear to converge
   **   ~~~   ** Air System Named = CENTRAL SYSTEM did not converge for mass flow rate
   **   ~~~   ** Check values should be zero. Most Recent values listed first.
   **   ~~~   ** Demand-to-Supply interface mass flow rate check value iteration history trace: 7.587054E-002,7.587054E-002,7.587054E-002,7.587054E-002,7.587054E-002,7.587054E-002,7.587054E-002,7.587054E-002,7.587054E-002,7.587054E-002,
   **   ~~~   ** Supply-to-demand interface deck 1 mass flow rate check value iteration history trace: 7.587054E-002,7.587054E-002,7.587054E-002,7.587054E-002,7.587054E-002,7.587054E-002,7.587054E-002,7.587054E-002,7.587054E-002,7.587054E-002,
   **   ~~~   ** Air System Named = CENTRAL SYSTEM did not converge for energy
   **   ~~~   ** Check values should be zero. Most Recent values listed first.
   **   ~~~   ** Demand-to-Supply interface energy check value iteration history trace: 1415.791482,1415.791482,1415.791482,1415.791482,1415.791482,1415.791482,1415.791482,1415.791482,1415.791481,1415.791481,
   **   ~~~   ** Supply-to-demand interface deck 1 energy check value iteration history trace: 2282.043216,2282.043216,2282.043216,2282.043216,2282.043216,2282.043216,2282.043216,2282.043215,2282.043215,2282.043215,
   ** Warning ** SimHVAC: Maximum iterations (20) exceeded for all HVAC loops, at ANNUAL, 03/03 09:00 - 09:15
   **   ~~~   ** The solution for one or more of the Air Loop HVAC systems did not appear to converge
   **   ~~~   ** Air System Named = CENTRAL SYSTEM did not converge for mass flow rate
   **   ~~~   ** Check values should be zero. Most Recent values listed first.
   **   ~~~   ** Demand-to-Supply interface mass flow rate check value iteration history trace: 5.714452E-002,5.714452E-002,5.714452E-002,5.714452E-002,5.714452E-002,5.714452E-002,5.714452E-002,5.714452E-002,5.714452E-002,5.714452E-002,
   **   ~~~   ** Supply-to-demand interface deck 1 mass flow rate check value iteration history trace: 5.714452E-002,5.714452E-002,5.714452E-002,5.714452E-002,5.714452E-002,5.714452E-002,5.714452E-002,5.714452E-002,5.714452E-002,5.714452E-002,
   **   ~~~   ** Air System Named = CENTRAL SYSTEM did not converge for energy
   **   ~~~   ** Check values should be zero. Most Recent values listed first.
   **   ~~~   ** Demand-to-Supply interface energy check value iteration history trace: 1132.408636,1132.408636,1132.408635,1132.408635,1132.408635,1132.408635,1132.408634,1132.408634,1132.408634,1132.408634,
   **   ~~~   ** Supply-to-demand interface deck 1 energy check value iteration history trace: 2121.260691,2121.260691,2121.260690,2121.260690,2121.260689,2121.260689,2121.260689,2121.260688,2121.260688,2121.260687,
   **   ~~~   ** Node named ZONE INLET NODE shows oscillating temperatures across iterations with a repeated value of 36.942042
   **   ~~~   ** Node named ZONE INLET NODE temperature [C] iteration history trace (most recent first): 36.942042,36.942041,36.942041,36.942041,36.942040,36.942040,36.942040,36.942039,36.942039,36.942039,
   ** Warning ** SimHVAC: Maximum iterations (20) exceeded for all HVAC loops, at ANNUAL, 03/11 15:00 - 15:15
   **   ~~~   ** The solution for one or more of the Air Loop HVAC systems did not appear to converge
   **   ~~~   ** Air System Named = CENTRAL SYSTEM did not converge for mass flow rate
   **   ~~~   ** Check values should be zero. Most Recent values listed first.
   **   ~~~   ** Demand-to-Supply interface mass flow rate check value iteration history trace: 6.884873E-002,6.884873E-002,6.884873E-002,6.884873E-002,6.884873E-002,6.884873E-002,6.884873E-002,6.884873E-002,6.884873E-002,6.884873E-002,
   **   ~~~   ** Supply-to-demand interface deck 1 mass flow rate check value iteration history trace: 6.884873E-002,6.884873E-002,6.884873E-002,6.884873E-002,6.884873E-002,6.884873E-002,6.884873E-002,6.884873E-002,6.884873E-002,6.884873E-002,
   **   ~~~   ** Air System Named = CENTRAL SYSTEM did not converge for energy
   **   ~~~   ** Check values should be zero. Most Recent values listed first.
   **   ~~~   ** Demand-to-Supply interface energy check value iteration history trace: 1339.786852,1339.786851,1339.786851,1339.786851,1339.786851,1339.786850,1339.786850,1339.786850,1339.786850,1339.786850,
   **   ~~~   ** Supply-to-demand interface deck 1 energy check value iteration history trace: 2428.044643,2428.044643,2428.044642,2428.044642,2428.044641,2428.044641,2428.044641,2428.044640,2428.044640,2428.044640,
   **   ~~~   ** Node named ZONE INLET NODE shows oscillating temperatures across iterations with a repeated value of 35.096364
   **   ~~~   ** Node named ZONE INLET NODE temperature [C] iteration history trace (most recent first): 35.096364,35.096364,35.096364,35.096364,35.096363,35.096363,35.096363,35.096363,35.096362,35.096362,
   ** Warning ** SimHVAC: Maximum iterations (20) exceeded for all HVAC loops, at ANNUAL, 03/12 10:53 - 10:56
   **   ~~~   ** The solution for one or more of the Air Loop HVAC systems did not appear to converge
   **   ~~~   ** Air System Named = CENTRAL SYSTEM did not converge for mass flow rate
   **   ~~~   ** Check values should be zero. Most Recent values listed first.
   **   ~~~   ** Demand-to-Supply interface mass flow rate check value iteration history trace: 8.879379E-002,8.879379E-002,8.879379E-002,8.879379E-002,8.879379E-002,8.879379E-002,8.879379E-002,8.879379E-002,8.879379E-002,8.879379E-002,
   **   ~~~   ** Supply-to-demand interface deck 1 mass flow rate check value iteration history trace: 8.879379E-002,8.879379E-002,8.879379E-002,8.879379E-002,8.879379E-002,8.879379E-002,8.879379E-002,8.879379E-002,8.879379E-002,8.879379E-002,
   **   ~~~   ** Air System Named = CENTRAL SYSTEM did not converge for energy
   **   ~~~   ** Check values should be zero. Most Recent values listed first.
   **   ~~~   ** Demand-to-Supply interface energy check value iteration history trace: 1759.637030,1759.637030,1759.637030,1759.637030,1759.637030,1759.637030,1759.637030,1759.637030,1759.637030,1759.637029,
   **   ~~~   ** Supply-to-demand interface deck 1 energy check value iteration history trace: 2876.280250,2876.280250,2876.280250,2876.280250,2876.280250,2876.280249,2876.280249,2876.280249,2876.280249,2876.280249,
   ** Warning ** SimHVAC: Maximum iterations (20) exceeded for all HVAC loops, at ANNUAL, 03/26 04:23 - 04:30
   **   ~~~   ** The solution for one or more of the Air Loop HVAC systems did not appear to converge
   **   ~~~   ** Air System Named = CENTRAL SYSTEM did not converge for mass flow rate
   **   ~~~   ** Check values should be zero. Most Recent values listed first.
   **   ~~~   ** Demand-to-Supply interface mass flow rate check value iteration history trace: 3.853636E-002,3.853636E-002,3.853636E-002,3.853636E-002,3.853636E-002,3.853636E-002,3.853636E-002,3.853636E-002,3.853636E-002,3.853636E-002,
   **   ~~~   ** Supply-to-demand interface deck 1 mass flow rate check value iteration history trace: 3.853636E-002,3.853636E-002,3.853636E-002,3.853636E-002,3.853636E-002,3.853636E-002,3.853636E-002,3.853636E-002,3.853636E-002,3.853636E-002,
   **   ~~~   ** Air System Named = CENTRAL SYSTEM did not converge for energy
   **   ~~~   ** Check values should be zero. Most Recent values listed first.
   **   ~~~   ** Demand-to-Supply interface energy check value iteration history trace: 724.287370,724.287370,724.287370,724.287370,724.287370,724.287370,724.287370,724.287370,724.287370,724.287370,
   **   ~~~   ** Supply-to-demand interface deck 1 energy check value iteration history trace: 1390.123654,1390.123654,1390.123654,1390.123654,1390.123654,1390.123654,1390.123654,1390.123654,1390.123653,1390.123653,
   ** Warning ** SimHVAC: Maximum iterations (20) exceeded for all HVAC loops, at ANNUAL, 03/30 09:34 - 09:38
   **   ~~~   ** The solution for one or more of the Air Loop HVAC systems did not appear to converge
   **   ~~~   ** Air System Named = CENTRAL SYSTEM did not converge for mass flow rate
   **   ~~~   ** Check values should be zero. Most Recent values listed first.
   **   ~~~   ** Demand-to-Supply interface mass flow rate check value iteration history trace: 4.533039E-002,4.533039E-002,4.533039E-002,4.533039E-002,4.533039E-002,4.533039E-002,4.533039E-002,4.533039E-002,4.533039E-002,4.533039E-002,
   **   ~~~   ** Supply-to-demand interface deck 1 mass flow rate check value iteration history trace: 4.533039E-002,4.533039E-002,4.533039E-002,4.533039E-002,4.533039E-002,4.533039E-002,4.533039E-002,4.533039E-002,4.533039E-002,4.533039E-002,
   **   ~~~   ** Air System Named = CENTRAL SYSTEM did not converge for energy
   **   ~~~   ** Check values should be zero. Most Recent values listed first.
   **   ~~~   ** Demand-to-Supply interface energy check value iteration history trace: 894.121996,894.121996,894.121996,894.121996,894.121996,894.121996,894.121996,894.121996,894.121996,894.121996,
   **   ~~~   ** Supply-to-demand interface deck 1 energy check value iteration history trace: 1622.002376,1622.002376,1622.002376,1622.002376,1622.002376,1622.002376,1622.002375,1622.002375,1622.002375,1622.002375,
   ** Warning ** SimHVAC: Maximum iterations (20) exceeded for all HVAC loops, at ANNUAL, 04/01 10:15 - 10:30
   **   ~~~   ** The solution for one or more of the Air Loop HVAC systems did not appear to converge
   **   ~~~   ** Air System Named = CENTRAL SYSTEM did not converge for mass flow rate
   **   ~~~   ** Check values should be zero. Most Recent values listed first.
   **   ~~~   ** Demand-to-Supply interface mass flow rate check value iteration history trace: 6.101789E-002,6.101789E-002,6.101789E-002,6.101789E-002,6.101789E-002,6.101789E-002,6.101789E-002,6.101789E-002,6.101789E-002,6.101789E-002,
   **   ~~~   ** Supply-to-demand interface deck 1 mass flow rate check value iteration history trace: 6.101789E-002,6.101789E-002,6.101789E-002,6.101789E-002,6.101789E-002,6.101789E-002,6.101789E-002,6.101789E-002,6.101789E-002,6.101789E-002,
   **   ~~~   ** Air System Named = CENTRAL SYSTEM did not converge for energy
   **   ~~~   ** Check values should be zero. Most Recent values listed first.
   **   ~~~   ** Demand-to-Supply interface energy check value iteration history trace: 1208.793649,1208.793649,1208.793649,1208.793649,1208.793648,1208.793648,1208.793648,1208.793648,1208.793648,1208.793648,
   **   ~~~   ** Supply-to-demand interface deck 1 energy check value iteration history trace: 2149.584545,2149.584545,2149.584545,2149.584545,2149.584545,2149.584545,2149.584545,2149.584545,2149.584545,2149.584545,
   ** Warning ** SimHVAC: Maximum iterations (20) exceeded for all HVAC loops, at ANNUAL, 05/17 09:23 - 09:25
   **   ~~~   ** The solution for one or more of the Air Loop HVAC systems did not appear to converge
   **   ~~~   ** Air System Named = CENTRAL SYSTEM did not converge for mass flow rate
   **   ~~~   ** Check values should be zero. Most Recent values listed first.
   **   ~~~   ** Demand-to-Supply interface mass flow rate check value iteration history trace: 0.180938,0.180938,0.180938,0.180938,0.180938,0.180938,0.180938,0.180938,0.180938,0.180938,
   **   ~~~   ** Supply-to-demand interface deck 1 mass flow rate check value iteration history trace: 0.180938,0.180938,0.180938,0.180938,0.180938,0.180938,0.180938,0.180938,0.180938,0.180938,
   **   ~~~   ** Air System Named = CENTRAL SYSTEM did not converge for energy
   **   ~~~   ** Check values should be zero. Most Recent values listed first.
   **   ~~~   ** Demand-to-Supply interface energy check value iteration history trace: 4292.129354,4292.129355,4292.129355,4292.129355,4292.129355,4292.129356,4292.129356,4292.129356,4292.129356,4292.129357,
   **   ~~~   ** Supply-to-demand interface deck 1 energy check value iteration history trace: 1898.562666,1898.562666,1898.562666,1898.562666,1898.562666,1898.562666,1898.562666,1898.562666,1898.562667,1898.562667,
   ** Warning ** SimHVAC: Maximum iterations (20) exceeded for all HVAC loops, at ANNUAL, 10/29 12:23 - 12:30
   **   ~~~   ** The solution for one or more of the Air Loop HVAC systems did not appear to converge
   **   ~~~   ** Air System Named = CENTRAL SYSTEM did not converge for mass flow rate
   **   ~~~   ** Check values should be zero. Most Recent values listed first.
   **   ~~~   ** Demand-to-Supply interface mass flow rate check value iteration history trace: 7.780851E-002,7.780851E-002,7.780851E-002,7.780851E-002,7.780851E-002,7.780851E-002,7.780851E-002,7.780851E-002,7.780851E-002,7.780851E-002,
   **   ~~~   ** Supply-to-demand interface deck 1 mass flow rate check value iteration history trace: 7.780851E-002,7.780851E-002,7.780851E-002,7.780851E-002,7.780851E-002,7.780851E-002,7.780851E-002,7.780851E-002,7.780851E-002,7.780851E-002,
   **   ~~~   ** Air System Named = CENTRAL SYSTEM did not converge for energy
   **   ~~~   ** Check values should be zero. Most Recent values listed first.
   **   ~~~   ** Demand-to-Supply interface energy check value iteration history trace: 1840.388028,1840.388028,1840.388028,1840.388028,1840.388028,1840.388029,1840.388029,1840.388029,1840.388029,1840.388029,
   **   ~~~   ** Supply-to-demand interface deck 1 energy check value iteration history trace: 765.071367,765.071367,765.071367,765.071367,765.071367,765.071367,765.071367,765.071368,765.071368,765.071368,
   ** Warning ** SimHVAC: Maximum iterations (20) exceeded for all HVAC loops, at ANNUAL, 10/31 13:40 - 13:45
   **   ~~~   ** The solution for one or more of the Air Loop HVAC systems did not appear to converge
   **   ~~~   ** Air System Named = CENTRAL SYSTEM did not converge for mass flow rate
   **   ~~~   ** Check values should be zero. Most Recent values listed first.
   **   ~~~   ** Demand-to-Supply interface mass flow rate check value iteration history trace: 0.177832,0.177832,0.177832,0.177832,0.177832,0.177832,0.177832,0.177832,0.177832,0.177832,
   **   ~~~   ** Supply-to-demand interface deck 1 mass flow rate check value iteration history trace: 0.177832,0.177832,0.177832,0.177832,0.177832,0.177832,0.177832,0.177832,0.177832,0.177832,
   **   ~~~   ** Air System Named = CENTRAL SYSTEM did not converge for energy
   **   ~~~   ** Check values should be zero. Most Recent values listed first.
   **   ~~~   ** Demand-to-Supply interface energy check value iteration history trace: 4285.042778,4285.042779,4285.042780,4285.042780,4285.042781,4285.042782,4285.042783,4285.042784,4285.042784,4285.042785,
   **   ~~~   ** Supply-to-demand interface deck 1 energy check value iteration history trace: 1455.708279,1455.708279,1455.708279,1455.708280,1455.708280,1455.708280,1455.708280,1455.708281,1455.708281,1455.708281,
   ** Warning ** SimHVAC: Maximum iterations (20) exceeded for all HVAC loops, at ANNUAL, 10/31 14:30 - 14:45
   **   ~~~   ** The solution for one or more of the Air Loop HVAC systems did not appear to converge
   **   ~~~   ** Air System Named = CENTRAL SYSTEM did not converge for mass flow rate
   **   ~~~   ** Check values should be zero. Most Recent values listed first.
   **   ~~~   ** Demand-to-Supply interface mass flow rate check value iteration history trace: 0.115638,0.115638,0.115638,0.115638,0.115638,0.115638,0.115638,0.115638,0.115638,0.115638,
   **   ~~~   ** Supply-to-demand interface deck 1 mass flow rate check value iteration history trace: 0.115638,0.115638,0.115638,0.115638,0.115638,0.115638,0.115638,0.115638,0.115638,0.115638,
   **   ~~~   ** Air System Named = CENTRAL SYSTEM did not converge for energy
   **   ~~~   ** Check values should be zero. Most Recent values listed first.
   **   ~~~   ** Demand-to-Supply interface energy check value iteration history trace: 2764.265104,2764.265104,2764.265105,2764.265105,2764.265106,2764.265107,2764.265107,2764.265108,2764.265108,2764.265109,
   **   ~~~   ** Supply-to-demand interface deck 1 energy check value iteration history trace: 920.558011,920.558011,920.558011,920.558011,920.558012,920.558012,920.558012,920.558012,920.558012,920.558013,
   ** Warning ** SimHVAC: Maximum iterations (20) exceeded for all HVAC loops, at ANNUAL, 11/03 10:00 - 10:05
   **   ~~~   ** The solution for one or more of the Air Loop HVAC systems did not appear to converge
   **   ~~~   ** Air System Named = CENTRAL SYSTEM did not converge for mass flow rate
   **   ~~~   ** Check values should be zero. Most Recent values listed first.
   **   ~~~   ** Demand-to-Supply interface mass flow rate check value iteration history trace: 6.734372E-002,6.734372E-002,6.734372E-002,6.734372E-002,6.734372E-002,6.734372E-002,6.734372E-002,6.734372E-002,6.734372E-002,6.734372E-002,
   **   ~~~   ** Supply-to-demand interface deck 1 mass flow rate check value iteration history trace: 6.734372E-002,6.734372E-002,6.734372E-002,6.734372E-002,6.734372E-002,6.734372E-002,6.734372E-002,6.734372E-002,6.734372E-002,6.734372E-002,
   **   ~~~   ** Air System Named = CENTRAL SYSTEM did not converge for energy
   **   ~~~   ** Check values should be zero. Most Recent values listed first.
   **   ~~~   ** Demand-to-Supply interface energy check value iteration history trace: 1328.775639,1328.775639,1328.775639,1328.775639,1328.775638,1328.775638,1328.775638,1328.775638,1328.775637,1328.775637,
   **   ~~~   ** Supply-to-demand interface deck 1 energy check value iteration history trace: 2183.056604,2183.056603,2183.056603,2183.056602,2183.056602,2183.056602,2183.056601,2183.056601,2183.056600,2183.056600,
   ************* Simulation Error Summary *************
   ** Warning ** The following Report Variables were requested but not generated -- check.rdd file
   **   ~~~   ** Either the IDF did not contain these elements, the variable name is misspelled,
   **   ~~~   ** or the requested variable is an advanced output which requires Output : Diagnostics, DisplayAdvancedReportVariables;
   ************* Key=*, VarName=BASEBOARD TOTAL HEATING ENERGY, Frequency=
   ************* Key=*, VarName=WATER HEATER NATURALGAS ENERGY, Frequency=
   ************* Key=*, VarName=COOLING COIL TOTAL HEATING ENERGY, Frequency=
   ************* There are 34 unused schedules in input.
   ************* There are 388 unused week schedules in input.
   ************* There are 396 unused day schedules in input.
   ************* Use Output:Diagnostics,DisplayUnusedSchedules; to see them.
   *************
   ************* ===== Recurring Error Summary =====
   ************* The following recurring error messages occurred.
   *************
   *************  ** Warning ** "TOTAL HOT WATER LOAD" - Target water temperature should be less than or equal to the hot water temperature error continues...
   *************  **   ~~~   **   This error occurred 110443 total times;
   *************  **   ~~~   **   during Warmup 0 times;
   *************  **   ~~~   **   during Sizing 0 times.
   *************  **   ~~~   **   Max=12.232378  Min=2.904497E-003
   *************
   *************  ** Warning ** SimHVAC: Exceeding Maximum iterations for all HVAC loops, during ANNUAL continues
   *************  **   ~~~   **   This error occurred 7 total times;
   *************  **   ~~~   **   during Warmup 0 times;
   *************  **   ~~~   **   during Sizing 0 times.
   *************
   *************
   ************* ===== Final Error Summary =====
   ************* The following error categories occurred.  Consider correcting or noting.
   ************* Nominally Unused Constructions
   ************* ..The nominally unused constructions warning is provided to alert you to potential conditions that can cause
   ************* ..extra time during simulation. Each construction is calculated by the algorithm indicated in the HeatBalanceAlgorithm
   ************* ..object. You may remove the constructions indicated (when you use the DisplayExtraWarnings option).
   *************
   ************* EnergyPlus Warmup Error Summary. During Warmup: 0 Warning; 0 Severe Errors.
   ************* EnergyPlus Sizing Error Summary. During Sizing: 4 Warning; 0 Severe Errors.
   ************* EnergyPlus Completed Successfully-- 110481 Warning; 0 Severe Errors; Elapsed Time=00hr 01min 31.93sec
