Program Version,EnergyPlus, Version 22.2.0-c249759bad, YMD=2023.09.01 20:06,
   ************* Beginning Zone Sizing Calculations
   ** Warning ** ProcessScheduleInput: Schedule:Constant="ALWAYS ON DISCRETE", Schedule Type Limits Name="ONOFF" not found -- will not be validated
   ** Warning ** Foundation:Kiva="KIVA FOUNDATION", no Interior Horizontal Insulation Material Name defined
   **   ~~~   ** Interior Horizontal Insulation Depth will not be used.
   ** Warning ** CheckUsedConstructions: There are 15 nominally unused constructions in input.
   **   ~~~   ** Each Unused construction is shown.
   ************* Construction=INTERIOR FLOOR
   ************* Construction=INTERIOR WINDOW
   ************* Construction=EXTERIOR DOOR
   ************* Construction=INTERIOR DOOR
   ************* Construction=GABLE CONSTRUCTION
   ************* Construction=CRAWL_FLOOR
   ************* Construction=INSULATED PIPE
   ************* Construction=PLAIN PIPE
   ************* Construction=TDD PIPE
   ************* Construction=TDD DOME
   ************* Construction=TDD DIFFUSER
   ************* Construction=CRAWL WALL
   ************* Construction=CEILING-FLOOR-LAYER
   ************* Construction=SLAB CONSTRUCTION W FULL R10 INSULATION
   ************* Construction=SLAB CONSTRUCTION W FULL R5 INSULATION
   ** Warning ** GetDXCoils: Coil:Heating:DX:SingleSpeed="DX_HEATING_COIL" curve values
   **   ~~~   ** ... Defrost Energy Input Ratio Function of Temperature Curve Name = DEFROSTEIR output is not equal to 1.0 (+ or - 10%) at rated conditions.
   **   ~~~   ** ... Curve output at rated conditions = 0.152
   ************* Beginning System Sizing Calculations
   ************* Beginning Plant Sizing Calculations
   ** Warning ** SizeDXCoil Coil:Cooling:DX:SingleSpeed DX_COOLING_COIL
   **   ~~~   ** ...Gross Rated Total Cooling Capacity [W] will be limited by the maximum rated volume flow per rated total capacity ratio.
   **   ~~~   ** ...DX coil volume flow rate ( m3/s ) = 0.556017
   **   ~~~   ** ...Requested capacity ( W ) = 7713.140
   **   ~~~   ** ...Requested flow/capacity ratio ( m3/s/W ) = 7.208E-005
   **   ~~~   ** ...Maximum flow/capacity ratio ( m3/s/W ) = 6.041E-005
   **   ~~~   ** ...Adjusted capacity ( W ) = 9204.067
   ** Warning ** Coil:WaterHeating:AirToWaterHeatPump:Wrapped "HEAT PUMP WATER HEATER EVAPORATOR": Rated air volume flow rate per watt of rated total water heating capacity is out of range
   **   ~~~   ** Min Rated Vol Flow Per Watt=[4.027E-005], Rated Vol Flow Per Watt=[1.510E-004], Max Rated Vol Flow Per Watt=[8.056E-005]. See Input-Output Reference Manual for valid range.
   ************* SizeFan: : Potential issue with equipment sizing for Fan:OnOff HEAT PUMP WATER HEATER FAN
   **   ~~~   ** User-Specified Maximum Flow Rate [m3/s] = 0.22653
   **   ~~~   ** differs from Design Size Maximum Flow Rate [m3/s] = 7.55250E-002
   **   ~~~   ** This may, or may not, indicate mismatched component sizes.
   **   ~~~   ** Verify that the value entered is intended and is consistent with other components.
   ** Warning ** Water heater = WATER HEATER TANK:  Recovery Efficiency and Energy Factor could not be calculated during the test for standard ratings
   **   ~~~   ** Setpoint was never recovered and/or heater never turned on
   ** Warning ** Check input. Pump nominal power or motor efficiency is set to 0, for pump=MAINS PRESSURE
   ** Warning ** Output:Meter: invalid Key Name="ELECTRIC_RANGE:INTERIOREQUIPMENT:ELECTRICITY" - not found.
   ** Warning ** Output:Meter: invalid Key Name="ELECTRIC_DRYER:INTERIOREQUIPMENT:ELECTRICITY" - not found.
   ** Warning ** Output:Meter: invalid Key Name="HEATRECOVERY:ELECTRICITY" - not found.
   ** Warning ** Output:Meter: invalid Key Name="HEATING:NATURALGAS" - not found.
   ** Warning ** Output:Meter: invalid Key Name="WATERSYSTEMS:NATURALGAS" - not found.
   ** Warning ** Output:Meter: invalid Key Name="PROPANE:FACILITY" - not found.
   ** Warning ** Output:Meter: invalid Key Name="HEATING:PROPANE" - not found.
   ************* Testing Individual Branch Integrity
   ************* All Branches passed integrity testing
   ************* Testing Individual Supply Air Path Integrity
   ************* All Supply Air Paths passed integrity testing
   ************* Testing Individual Return Air Path Integrity
   ************* All Return Air Paths passed integrity testing
   ************* No node connection errors were found.
   ************* Beginning Simulation
   ** Warning ** AirflowNetwork::Solver::validate_distribution: Heat pump water heater is simulated along with an AirflowNetwork but is not included in the AirflowNetwork.
   ** Warning ** CalcEquipmentFlowRates: "TOTAL HOT WATER LOAD" - Target water temperature is greater than the hot water temperature by (4.67 C)
   **   ~~~   **  Environment=EXTREME_WINTER, at Simulation time=01/13 07:00 - 07:15
   **   ~~~   ** ...target water temperature     = 53.33 C
   **   ~~~   ** ...hot water temperature        = 48.66 C
   **   ~~~   ** ...Target water temperature should be less than or equal to the hot water temperature. Verify temperature setpoints and schedules.
   ** Warning ** SimHVAC: Maximum iterations (20) exceeded for all HVAC loops, at EXTREME_WINTER, 01/13 10:30 - 10:45
   **   ~~~   ** The solution for one or more of the Air Loop HVAC systems did not appear to converge
   **   ~~~   ** Air System Named = CENTRAL SYSTEM did not converge for mass flow rate
   **   ~~~   ** Check values should be zero. Most Recent values listed first.
   **   ~~~   ** Demand-to-Supply interface mass flow rate check value iteration history trace: 5.916278E-002,5.916278E-002,5.916278E-002,5.916278E-002,5.916278E-002,5.916278E-002,5.916278E-002,5.916278E-002,5.916278E-002,5.916278E-002,
   **   ~~~   ** Supply-to-demand interface deck 1 mass flow rate check value iteration history trace: 5.916278E-002,5.916278E-002,5.916278E-002,5.916278E-002,5.916278E-002,5.916278E-002,5.916278E-002,5.916278E-002,5.916278E-002,5.916278E-002,
   **   ~~~   ** Air System Named = CENTRAL SYSTEM did not converge for energy
   **   ~~~   ** Check values should be zero. Most Recent values listed first.
   **   ~~~   ** Demand-to-Supply interface energy check value iteration history trace: 1154.600185,1154.600185,1154.600185,1154.600185,1154.600185,1154.600185,1154.600185,1154.600185,1154.600185,1154.600185,
   **   ~~~   ** Supply-to-demand interface deck 1 energy check value iteration history trace: 2095.434550,2095.434550,2095.434550,2095.434550,2095.434550,2095.434550,2095.434550,2095.434550,2095.434550,2095.434550,
   ** Warning ** SimHVAC: Maximum iterations (20) exceeded for all HVAC loops, at EXTREME_WINTER, 01/16 08:50 - 08:55
   **   ~~~   ** The solution for one or more of the Air Loop HVAC systems did not appear to converge
   **   ~~~   ** Air System Named = CENTRAL SYSTEM did not converge for mass flow rate
   **   ~~~   ** Check values should be zero. Most Recent values listed first.
   **   ~~~   ** Demand-to-Supply interface mass flow rate check value iteration history trace: 8.436987E-002,8.436987E-002,8.436987E-002,8.436987E-002,8.436987E-002,8.436987E-002,8.436987E-002,8.436987E-002,8.436987E-002,8.436987E-002,
   **   ~~~   ** Supply-to-demand interface deck 1 mass flow rate check value iteration history trace: 8.436987E-002,8.436987E-002,8.436987E-002,8.436987E-002,8.436987E-002,8.436987E-002,8.436987E-002,8.436987E-002,8.436987E-002,8.436987E-002,
   **   ~~~   ** Air System Named = CENTRAL SYSTEM did not converge for energy
   **   ~~~   ** Check values should be zero. Most Recent values listed first.
   **   ~~~   ** Demand-to-Supply interface energy check value iteration history trace: 1672.091980,1672.091980,1672.091980,1672.091980,1672.091979,1672.091979,1672.091979,1672.091979,1672.091979,1672.091979,
   **   ~~~   ** Supply-to-demand interface deck 1 energy check value iteration history trace: 2770.679097,2770.679097,2770.679097,2770.679097,2770.679097,2770.679097,2770.679097,2770.679096,2770.679096,2770.679096,
   ** Warning ** SimHVAC: Maximum iterations (20) exceeded for all HVAC loops, at ANNUAL, 01/13 10:30 - 10:38
   **   ~~~   ** The solution for one or more of the Air Loop HVAC systems did not appear to converge
   **   ~~~   ** Air System Named = CENTRAL SYSTEM did not converge for mass flow rate
   **   ~~~   ** Check values should be zero. Most Recent values listed first.
   **   ~~~   ** Demand-to-Supply interface mass flow rate check value iteration history trace: 6.482187E-002,6.482187E-002,6.482187E-002,6.482187E-002,6.482187E-002,6.482187E-002,6.482187E-002,6.482187E-002,6.482187E-002,6.482187E-002,
   **   ~~~   ** Supply-to-demand interface deck 1 mass flow rate check value iteration history trace: 6.482187E-002,6.482187E-002,6.482187E-002,6.482187E-002,6.482187E-002,6.482187E-002,6.482187E-002,6.482187E-002,6.482187E-002,6.482187E-002,
   **   ~~~   ** Air System Named = CENTRAL SYSTEM did not converge for energy
   **   ~~~   ** Check values should be zero. Most Recent values listed first.
   **   ~~~   ** Demand-to-Supply interface energy check value iteration history trace: 1284.348284,1284.348284,1284.348284,1284.348284,1284.348284,1284.348284,1284.348284,1284.348284,1284.348284,1284.348284,
   **   ~~~   ** Supply-to-demand interface deck 1 energy check value iteration history trace: 2313.868566,2313.868566,2313.868566,2313.868566,2313.868566,2313.868566,2313.868565,2313.868565,2313.868565,2313.868565,
   ** Warning ** SimHVAC: Maximum iterations (20) exceeded for all HVAC loops, at ANNUAL, 01/13 11:49 - 11:52
   **   ~~~   ** The solution for one or more of the Air Loop HVAC systems did not appear to converge
   **   ~~~   ** Air System Named = CENTRAL SYSTEM did not converge for mass flow rate
   **   ~~~   ** Check values should be zero. Most Recent values listed first.
   **   ~~~   ** Demand-to-Supply interface mass flow rate check value iteration history trace: 5.199444E-002,5.199444E-002,5.199444E-002,5.199444E-002,5.199444E-002,5.199444E-002,5.199444E-002,5.199444E-002,5.199444E-002,5.199444E-002,
   **   ~~~   ** Supply-to-demand interface deck 1 mass flow rate check value iteration history trace: 5.199444E-002,5.199444E-002,5.199444E-002,5.199444E-002,5.199444E-002,5.199444E-002,5.199444E-002,5.199444E-002,5.199444E-002,5.199444E-002,
   **   ~~~   ** Air System Named = CENTRAL SYSTEM did not converge for energy
   **   ~~~   ** Check values should be zero. Most Recent values listed first.
   **   ~~~   ** Demand-to-Supply interface energy check value iteration history trace: 1024.895783,1024.895783,1024.895783,1024.895783,1024.895783,1024.895783,1024.895783,1024.895783,1024.895783,1024.895783,
   **   ~~~   ** Supply-to-demand interface deck 1 energy check value iteration history trace: 1897.319159,1897.319159,1897.319159,1897.319159,1897.319159,1897.319158,1897.319158,1897.319158,1897.319158,1897.319158,
   ** Warning ** SimHVAC: Maximum iterations (20) exceeded for all HVAC loops, at ANNUAL, 01/27 09:30 - 09:45
   **   ~~~   ** The solution for one or more of the Air Loop HVAC systems did not appear to converge
   **   ~~~   ** Air System Named = CENTRAL SYSTEM did not converge for mass flow rate
   **   ~~~   ** Check values should be zero. Most Recent values listed first.
   **   ~~~   ** Demand-to-Supply interface mass flow rate check value iteration history trace: 5.968038E-002,5.968038E-002,5.968038E-002,5.968038E-002,5.968038E-002,5.968038E-002,5.968038E-002,5.968038E-002,5.968038E-002,5.968038E-002,
   **   ~~~   ** Supply-to-demand interface deck 1 mass flow rate check value iteration history trace: 5.968038E-002,5.968038E-002,5.968038E-002,5.968038E-002,5.968038E-002,5.968038E-002,5.968038E-002,5.968038E-002,5.968038E-002,5.968038E-002,
   **   ~~~   ** Air System Named = CENTRAL SYSTEM did not converge for energy
   **   ~~~   ** Check values should be zero. Most Recent values listed first.
   **   ~~~   ** Demand-to-Supply interface energy check value iteration history trace: 1182.176994,1182.176994,1182.176994,1182.176994,1182.176994,1182.176994,1182.176994,1182.176994,1182.176994,1182.176994,
   **   ~~~   ** Supply-to-demand interface deck 1 energy check value iteration history trace: 2209.733266,2209.733265,2209.733265,2209.733265,2209.733265,2209.733265,2209.733265,2209.733265,2209.733265,2209.733265,
   ** Warning ** SimHVAC: Maximum iterations (20) exceeded for all HVAC loops, at ANNUAL, 01/29 08:30 - 08:45
   **   ~~~   ** The solution for one or more of the Air Loop HVAC systems did not appear to converge
   **   ~~~   ** Air System Named = CENTRAL SYSTEM did not converge for mass flow rate
   **   ~~~   ** Check values should be zero. Most Recent values listed first.
   **   ~~~   ** Demand-to-Supply interface mass flow rate check value iteration history trace: 6.075147E-002,6.075147E-002,6.075147E-002,6.075147E-002,6.075147E-002,6.075147E-002,6.075147E-002,6.075147E-002,6.075147E-002,6.075147E-002,
   **   ~~~   ** Supply-to-demand interface deck 1 mass flow rate check value iteration history trace: 6.075147E-002,6.075147E-002,6.075147E-002,6.075147E-002,6.075147E-002,6.075147E-002,6.075147E-002,6.075147E-002,6.075147E-002,6.075147E-002,
   **   ~~~   ** Air System Named = CENTRAL SYSTEM did not converge for energy
   **   ~~~   ** Check values should be zero. Most Recent values listed first.
   **   ~~~   ** Demand-to-Supply interface energy check value iteration history trace: 1203.865125,1203.865125,1203.865125,1203.865125,1203.865125,1203.865125,1203.865125,1203.865125,1203.865125,1203.865125,
   **   ~~~   ** Supply-to-demand interface deck 1 energy check value iteration history trace: 2171.575348,2171.575348,2171.575348,2171.575348,2171.575348,2171.575348,2171.575348,2171.575347,2171.575347,2171.575347,
   ** Warning ** SimHVAC: Maximum iterations (20) exceeded for all HVAC loops, at ANNUAL, 01/30 09:40 - 09:42
   **   ~~~   ** The solution for one or more of the Air Loop HVAC systems did not appear to converge
   **   ~~~   ** Air System Named = CENTRAL SYSTEM did not converge for mass flow rate
   **   ~~~   ** Check values should be zero. Most Recent values listed first.
   **   ~~~   ** Demand-to-Supply interface mass flow rate check value iteration history trace: 6.257996E-002,6.257996E-002,6.257996E-002,6.257996E-002,6.257996E-002,6.257996E-002,6.257996E-002,6.257996E-002,6.257996E-002,6.257996E-002,
   **   ~~~   ** Supply-to-demand interface deck 1 mass flow rate check value iteration history trace: 6.257996E-002,6.257996E-002,6.257996E-002,6.257996E-002,6.257996E-002,6.257996E-002,6.257996E-002,6.257996E-002,6.257996E-002,6.257996E-002,
   **   ~~~   ** Air System Named = CENTRAL SYSTEM did not converge for energy
   **   ~~~   ** Check values should be zero. Most Recent values listed first.
   **   ~~~   ** Demand-to-Supply interface energy check value iteration history trace: 1236.134993,1236.134993,1236.134993,1236.134993,1236.134993,1236.134993,1236.134993,1236.134993,1236.134993,1236.134993,
   **   ~~~   ** Supply-to-demand interface deck 1 energy check value iteration history trace: 2246.210731,2246.210731,2246.210731,2246.210730,2246.210730,2246.210730,2246.210730,2246.210730,2246.210730,2246.210730,
   ** Warning ** SimHVAC: Maximum iterations (20) exceeded for all HVAC loops, at ANNUAL, 02/16 08:15 - 08:19
   **   ~~~   ** The solution for one or more of the Air Loop HVAC systems did not appear to converge
   **   ~~~   ** Air System Named = CENTRAL SYSTEM did not converge for mass flow rate
   **   ~~~   ** Check values should be zero. Most Recent values listed first.
   **   ~~~   ** Demand-to-Supply interface mass flow rate check value iteration history trace: 6.724189E-002,6.724189E-002,6.724189E-002,6.724189E-002,6.724189E-002,6.724189E-002,6.724189E-002,6.724189E-002,6.724189E-002,6.724189E-002,
   **   ~~~   ** Supply-to-demand interface deck 1 mass flow rate check value iteration history trace: 6.724189E-002,6.724189E-002,6.724189E-002,6.724189E-002,6.724189E-002,6.724189E-002,6.724189E-002,6.724189E-002,6.724189E-002,6.724189E-002,
   **   ~~~   ** Air System Named = CENTRAL SYSTEM did not converge for energy
   **   ~~~   ** Check values should be zero. Most Recent values listed first.
   **   ~~~   ** Demand-to-Supply interface energy check value iteration history trace: 1332.448842,1332.448842,1332.448842,1332.448842,1332.448842,1332.448842,1332.448842,1332.448842,1332.448842,1332.448842,
   **   ~~~   ** Supply-to-demand interface deck 1 energy check value iteration history trace: 2146.508657,2146.508657,2146.508656,2146.508656,2146.508656,2146.508656,2146.508656,2146.508656,2146.508656,2146.508656,
   ** Warning ** SimHVAC: Maximum iterations (20) exceeded for all HVAC loops, at ANNUAL, 02/18 09:11 - 09:15
   **   ~~~   ** The solution for one or more of the Air Loop HVAC systems did not appear to converge
   **   ~~~   ** Air System Named = CENTRAL SYSTEM did not converge for mass flow rate
   **   ~~~   ** Check values should be zero. Most Recent values listed first.
   **   ~~~   ** Demand-to-Supply interface mass flow rate check value iteration history trace: 6.248554E-002,6.248554E-002,6.248554E-002,6.248554E-002,6.248554E-002,6.248554E-002,6.248554E-002,6.248554E-002,6.248554E-002,6.248554E-002,
   **   ~~~   ** Supply-to-demand interface deck 1 mass flow rate check value iteration history trace: 6.248554E-002,6.248554E-002,6.248554E-002,6.248554E-002,6.248554E-002,6.248554E-002,6.248554E-002,6.248554E-002,6.248554E-002,6.248554E-002,
   **   ~~~   ** Air System Named = CENTRAL SYSTEM did not converge for energy
   **   ~~~   ** Check values should be zero. Most Recent values listed first.
   **   ~~~   ** Demand-to-Supply interface energy check value iteration history trace: 1235.224514,1235.224514,1235.224514,1235.224514,1235.224514,1235.224514,1235.224514,1235.224514,1235.224514,1235.224514,
   **   ~~~   ** Supply-to-demand interface deck 1 energy check value iteration history trace: 2242.913077,2242.913077,2242.913077,2242.913077,2242.913077,2242.913077,2242.913077,2242.913077,2242.913077,2242.913077,
   ** Warning ** SimHVAC: Maximum iterations (20) exceeded for all HVAC loops, at ANNUAL, 02/19 08:00 - 08:04
   **   ~~~   ** The solution for one or more of the Air Loop HVAC systems did not appear to converge
   **   ~~~   ** Air System Named = CENTRAL SYSTEM did not converge for mass flow rate
   **   ~~~   ** Check values should be zero. Most Recent values listed first.
   **   ~~~   ** Demand-to-Supply interface mass flow rate check value iteration history trace: 6.198713E-002,6.198713E-002,6.198713E-002,6.198713E-002,6.198713E-002,6.198713E-002,6.198713E-002,6.198713E-002,6.198713E-002,6.198713E-002,
   **   ~~~   ** Supply-to-demand interface deck 1 mass flow rate check value iteration history trace: 6.198713E-002,6.198713E-002,6.198713E-002,6.198713E-002,6.198713E-002,6.198713E-002,6.198713E-002,6.198713E-002,6.198713E-002,6.198713E-002,
   **   ~~~   ** Air System Named = CENTRAL SYSTEM did not converge for energy
   **   ~~~   ** Check values should be zero. Most Recent values listed first.
   **   ~~~   ** Demand-to-Supply interface energy check value iteration history trace: 1221.913188,1221.913188,1221.913188,1221.913188,1221.913188,1221.913188,1221.913188,1221.913188,1221.913188,1221.913188,
   **   ~~~   ** Supply-to-demand interface deck 1 energy check value iteration history trace: 1974.502030,1974.502030,1974.502030,1974.502030,1974.502030,1974.502030,1974.502030,1974.502030,1974.502029,1974.502029,
   ** Warning ** SimHVAC: Maximum iterations (20) exceeded for all HVAC loops, at ANNUAL, 03/12 03:30 - 03:35
   **   ~~~   ** The solution for one or more of the Air Loop HVAC systems did not appear to converge
   **   ~~~   ** Air System Named = CENTRAL SYSTEM did not converge for mass flow rate
   **   ~~~   ** Check values should be zero. Most Recent values listed first.
   **   ~~~   ** Demand-to-Supply interface mass flow rate check value iteration history trace: 6.386755E-002,6.386755E-002,6.386755E-002,6.386755E-002,6.386755E-002,6.386755E-002,6.386755E-002,6.386755E-002,6.386755E-002,6.386755E-002,
   **   ~~~   ** Supply-to-demand interface deck 1 mass flow rate check value iteration history trace: 6.386755E-002,6.386755E-002,6.386755E-002,6.386755E-002,6.386755E-002,6.386755E-002,6.386755E-002,6.386755E-002,6.386755E-002,6.386755E-002,
   **   ~~~   ** Air System Named = CENTRAL SYSTEM did not converge for energy
   **   ~~~   ** Check values should be zero. Most Recent values listed first.
   **   ~~~   ** Demand-to-Supply interface energy check value iteration history trace: 1218.888501,1218.888501,1218.888501,1218.888501,1218.888500,1218.888500,1218.888500,1218.888500,1218.888500,1218.888500,
   **   ~~~   ** Supply-to-demand interface deck 1 energy check value iteration history trace: 2007.338011,2007.338011,2007.338011,2007.338011,2007.338011,2007.338010,2007.338010,2007.338010,2007.338010,2007.338010,
   ** Warning ** SimHVAC: Maximum iterations (20) exceeded for all HVAC loops, at ANNUAL, 03/12 08:47 - 08:49
   **   ~~~   ** The solution for one or more of the Air Loop HVAC systems did not appear to converge
   **   ~~~   ** Air System Named = CENTRAL SYSTEM did not converge for mass flow rate
   **   ~~~   ** Check values should be zero. Most Recent values listed first.
   **   ~~~   ** Demand-to-Supply interface mass flow rate check value iteration history trace: 8.046441E-002,8.046441E-002,8.046441E-002,8.046441E-002,8.046441E-002,8.046441E-002,8.046441E-002,8.046441E-002,8.046441E-002,8.046441E-002,
   **   ~~~   ** Supply-to-demand interface deck 1 mass flow rate check value iteration history trace: 8.046441E-002,8.046441E-002,8.046441E-002,8.046441E-002,8.046441E-002,8.046441E-002,8.046441E-002,8.046441E-002,8.046441E-002,8.046441E-002,
   **   ~~~   ** Air System Named = CENTRAL SYSTEM did not converge for energy
   **   ~~~   ** Check values should be zero. Most Recent values listed first.
   **   ~~~   ** Demand-to-Supply interface energy check value iteration history trace: 1592.596769,1592.596769,1592.596769,1592.596769,1592.596769,1592.596769,1592.596769,1592.596768,1592.596768,1592.596768,
   **   ~~~   ** Supply-to-demand interface deck 1 energy check value iteration history trace: 2656.882628,2656.882628,2656.882628,2656.882627,2656.882627,2656.882627,2656.882627,2656.882627,2656.882627,2656.882627,
   ** Warning ** SimHVAC: Maximum iterations (20) exceeded for all HVAC loops, at ANNUAL, 03/27 07:45 - 08:00
   **   ~~~   ** The solution for one or more of the Air Loop HVAC systems did not appear to converge
   **   ~~~   ** Air System Named = CENTRAL SYSTEM did not converge for mass flow rate
   **   ~~~   ** Check values should be zero. Most Recent values listed first.
   **   ~~~   ** Demand-to-Supply interface mass flow rate check value iteration history trace: 6.579595E-002,6.579595E-002,6.579595E-002,6.579595E-002,6.579595E-002,6.579595E-002,6.579595E-002,6.579595E-002,6.579595E-002,6.579595E-002,
   **   ~~~   ** Supply-to-demand interface deck 1 mass flow rate check value iteration history trace: 6.579595E-002,6.579595E-002,6.579595E-002,6.579595E-002,6.579595E-002,6.579595E-002,6.579595E-002,6.579595E-002,6.579595E-002,6.579595E-002,
   **   ~~~   ** Air System Named = CENTRAL SYSTEM did not converge for energy
   **   ~~~   ** Check values should be zero. Most Recent values listed first.
   **   ~~~   ** Demand-to-Supply interface energy check value iteration history trace: 1303.836878,1303.836878,1303.836878,1303.836878,1303.836878,1303.836878,1303.836878,1303.836877,1303.836877,1303.836877,
   **   ~~~   ** Supply-to-demand interface deck 1 energy check value iteration history trace: 2161.423267,2161.423266,2161.423266,2161.423266,2161.423266,2161.423266,2161.423266,2161.423266,2161.423266,2161.423265,
   ** Warning ** SimHVAC: Maximum iterations (20) exceeded for all HVAC loops, at ANNUAL, 04/18 08:04 - 08:08
   **   ~~~   ** The solution for one or more of the Air Loop HVAC systems did not appear to converge
   **   ~~~   ** Air System Named = CENTRAL SYSTEM did not converge for mass flow rate
   **   ~~~   ** Check values should be zero. Most Recent values listed first.
   **   ~~~   ** Demand-to-Supply interface mass flow rate check value iteration history trace: 0.115133,0.115133,0.115133,0.115133,0.115133,0.115133,0.115133,0.115133,0.115133,0.115133,
   **   ~~~   ** Supply-to-demand interface deck 1 mass flow rate check value iteration history trace: 0.115133,0.115133,0.115133,0.115133,0.115133,0.115133,0.115133,0.115133,0.115133,0.115133,
   **   ~~~   ** Air System Named = CENTRAL SYSTEM did not converge for energy
   **   ~~~   ** Check values should be zero. Most Recent values listed first.
   **   ~~~   ** Demand-to-Supply interface energy check value iteration history trace: 2714.157305,2714.157306,2714.157306,2714.157306,2714.157306,2714.157306,2714.157307,2714.157307,2714.157307,2714.157307,
   **   ~~~   ** Supply-to-demand interface deck 1 energy check value iteration history trace: 1045.191727,1045.191727,1045.191728,1045.191728,1045.191728,1045.191728,1045.191728,1045.191728,1045.191728,1045.191728,
   ************* Simulation Error Summary *************
   ** Warning ** The following Report Variables were requested but not generated -- check.rdd file
   **   ~~~   ** Either the IDF did not contain these elements, the variable name is misspelled,
   **   ~~~   ** or the requested variable is an advanced output which requires Output : Diagnostics, DisplayAdvancedReportVariables;
   ************* Key=*, VarName=BASEBOARD TOTAL HEATING ENERGY, Frequency=
   ************* Key=*, VarName=WATER HEATER NATURALGAS ENERGY, Frequency=
   ************* Key=*, VarName=COOLING COIL TOTAL HEATING ENERGY, Frequency=
   ************* There are 34 unused schedules in input.
   ************* There are 388 unused week schedules in input.
   ************* There are 396 unused day schedules in input.
   ************* Use Output:Diagnostics,DisplayUnusedSchedules; to see them.
   *************
   ************* ===== Recurring Error Summary =====
   ************* The following recurring error messages occurred.
   *************
   *************  ** Warning ** "TOTAL HOT WATER LOAD" - Target water temperature should be less than or equal to the hot water temperature error continues...
   *************  **   ~~~   **   This error occurred 227463 total times;
   *************  **   ~~~   **   during Warmup 0 times;
   *************  **   ~~~   **   during Sizing 0 times.
   *************  **   ~~~   **   Max=11.487706  Min=6.535648E-004
   *************
   *************  ** Warning ** SimHVAC: Exceeding Maximum iterations for all HVAC loops, during ANNUAL continues
   *************  **   ~~~   **   This error occurred 23 total times;
   *************  **   ~~~   **   during Warmup 0 times;
   *************  **   ~~~   **   during Sizing 0 times.
   *************
   *************
   ************* ===== Final Error Summary =====
   ************* The following error categories occurred.  Consider correcting or noting.
   ************* Nominally Unused Constructions
   ************* ..The nominally unused constructions warning is provided to alert you to potential conditions that can cause
   ************* ..extra time during simulation. Each construction is calculated by the algorithm indicated in the HeatBalanceAlgorithm
   ************* ..object. You may remove the constructions indicated (when you use the DisplayExtraWarnings option).
   *************
   ************* EnergyPlus Warmup Error Summary. During Warmup: 1 Warning; 0 Severe Errors.
   ************* EnergyPlus Sizing Error Summary. During Sizing: 4 Warning; 0 Severe Errors.
   ************* EnergyPlus Completed Successfully-- 227518 Warning; 0 Severe Errors; Elapsed Time=00hr 01min 55.00sec
