Program Version,EnergyPlus, Version 22.2.0-c249759bad, YMD=2023.09.01 20:06,
   ************* Beginning Zone Sizing Calculations
   ** Warning ** ProcessScheduleInput: Schedule:Constant="ALWAYS ON DISCRETE", Schedule Type Limits Name="ONOFF" not found -- will not be validated
   ** Warning ** Foundation:Kiva="KIVA FOUNDATION", no Interior Horizontal Insulation Material Name defined
   **   ~~~   ** Interior Horizontal Insulation Depth will not be used.
   ** Warning ** CheckUsedConstructions: There are 15 nominally unused constructions in input.
   **   ~~~   ** Each Unused construction is shown.
   ************* Construction=INTERIOR FLOOR
   ************* Construction=INTERIOR WINDOW
   ************* Construction=EXTERIOR DOOR
   ************* Construction=INTERIOR DOOR
   ************* Construction=GABLE CONSTRUCTION
   ************* Construction=CRAWL_FLOOR
   ************* Construction=INSULATED PIPE
   ************* Construction=PLAIN PIPE
   ************* Construction=TDD PIPE
   ************* Construction=TDD DOME
   ************* Construction=TDD DIFFUSER
   ************* Construction=CRAWL WALL
   ************* Construction=CEILING-FLOOR-LAYER
   ************* Construction=SLAB CONSTRUCTION W FULL R10 INSULATION
   ************* Construction=SLAB CONSTRUCTION W FULL R5 INSULATION
   ** Warning ** GetDXCoils: Coil:Heating:DX:SingleSpeed="DX_HEATING_COIL" curve values
   **   ~~~   ** ... Defrost Energy Input Ratio Function of Temperature Curve Name = DEFROSTEIR output is not equal to 1.0 (+ or - 10%) at rated conditions.
   **   ~~~   ** ... Curve output at rated conditions = 0.152
   ************* Beginning System Sizing Calculations
   ************* Beginning Plant Sizing Calculations
   ** Warning ** SizeDXCoil Coil:Cooling:DX:SingleSpeed DX_COOLING_COIL
   **   ~~~   ** ...Gross Rated Total Cooling Capacity [W] will be limited by the maximum rated volume flow per rated total capacity ratio.
   **   ~~~   ** ...DX coil volume flow rate ( m3/s ) = 0.439002
   **   ~~~   ** ...Requested capacity ( W ) = 6897.380
   **   ~~~   ** ...Requested flow/capacity ratio ( m3/s/W ) = 6.364E-005
   **   ~~~   ** ...Maximum flow/capacity ratio ( m3/s/W ) = 6.041E-005
   **   ~~~   ** ...Adjusted capacity ( W ) = 7267.056
   ** Warning ** Coil:WaterHeating:AirToWaterHeatPump:Wrapped "HEAT PUMP WATER HEATER EVAPORATOR": Rated air volume flow rate per watt of rated total water heating capacity is out of range
   **   ~~~   ** Min Rated Vol Flow Per Watt=[4.027E-005], Rated Vol Flow Per Watt=[1.510E-004], Max Rated Vol Flow Per Watt=[8.056E-005]. See Input-Output Reference Manual for valid range.
   ************* SizeFan: : Potential issue with equipment sizing for Fan:OnOff HEAT PUMP WATER HEATER FAN
   **   ~~~   ** User-Specified Maximum Flow Rate [m3/s] = 0.22653
   **   ~~~   ** differs from Design Size Maximum Flow Rate [m3/s] = 7.55250E-002
   **   ~~~   ** This may, or may not, indicate mismatched component sizes.
   **   ~~~   ** Verify that the value entered is intended and is consistent with other components.
   ** Warning ** Water heater = WATER HEATER TANK:  Recovery Efficiency and Energy Factor could not be calculated during the test for standard ratings
   **   ~~~   ** Setpoint was never recovered and/or heater never turned on
   ** Warning ** Check input. Pump nominal power or motor efficiency is set to 0, for pump=MAINS PRESSURE
   ** Warning ** Output:Meter: invalid Key Name="ELECTRIC_RANGE:INTERIOREQUIPMENT:ELECTRICITY" - not found.
   ** Warning ** Output:Meter: invalid Key Name="ELECTRIC_DRYER:INTERIOREQUIPMENT:ELECTRICITY" - not found.
   ** Warning ** Output:Meter: invalid Key Name="HEATRECOVERY:ELECTRICITY" - not found.
   ** Warning ** Output:Meter: invalid Key Name="HEATING:NATURALGAS" - not found.
   ** Warning ** Output:Meter: invalid Key Name="WATERSYSTEMS:NATURALGAS" - not found.
   ** Warning ** Output:Meter: invalid Key Name="PROPANE:FACILITY" - not found.
   ** Warning ** Output:Meter: invalid Key Name="HEATING:PROPANE" - not found.
   ************* Testing Individual Branch Integrity
   ************* All Branches passed integrity testing
   ************* Testing Individual Supply Air Path Integrity
   ************* All Supply Air Paths passed integrity testing
   ************* Testing Individual Return Air Path Integrity
   ************* All Return Air Paths passed integrity testing
   ************* No node connection errors were found.
   ************* Beginning Simulation
   ** Warning ** AirflowNetwork::Solver::validate_distribution: Heat pump water heater is simulated along with an AirflowNetwork but is not included in the AirflowNetwork.
   ** Warning ** CalcEquipmentFlowRates: "TOTAL HOT WATER LOAD" - Target water temperature is greater than the hot water temperature by (4.44 C)
   **   ~~~   **  Environment=EXTREME_WINTER, at Simulation time=01/20 07:00 - 07:15
   **   ~~~   ** ...target water temperature     = 53.33 C
   **   ~~~   ** ...hot water temperature        = 48.90 C
   **   ~~~   ** ...Target water temperature should be less than or equal to the hot water temperature. Verify temperature setpoints and schedules.
   ** Warning ** SimHVAC: Maximum iterations (20) exceeded for all HVAC loops, at EXTREME_SUMMER, 07/17 02:08 - 02:15
   **   ~~~   ** The solution for one or more of the Air Loop HVAC systems did not appear to converge
   **   ~~~   ** Air System Named = CENTRAL SYSTEM did not converge for mass flow rate
   **   ~~~   ** Check values should be zero. Most Recent values listed first.
   **   ~~~   ** Demand-to-Supply interface mass flow rate check value iteration history trace: 0.102260,0.102260,0.102260,0.102260,0.102260,0.102260,0.102260,0.102260,0.102260,0.102260,
   **   ~~~   ** Supply-to-demand interface deck 1 mass flow rate check value iteration history trace: 0.102260,0.102260,0.102260,0.102260,0.102260,0.102260,0.102260,0.102260,0.102260,0.102260,
   **   ~~~   ** Air System Named = CENTRAL SYSTEM did not converge for energy
   **   ~~~   ** Check values should be zero. Most Recent values listed first.
   **   ~~~   ** Demand-to-Supply interface energy check value iteration history trace: 2544.969332,2544.969333,2544.969334,2544.969335,2544.969336,2544.969337,2544.969337,2544.969338,2544.969339,2544.969340,
   **   ~~~   ** Supply-to-demand interface deck 1 energy check value iteration history trace: 1347.240804,1347.240804,1347.240805,1347.240805,1347.240805,1347.240806,1347.240806,1347.240807,1347.240807,1347.240808,
   ** Warning ** SimHVAC: Maximum iterations (20) exceeded for all HVAC loops, at ANNUAL, 01/01 09:00 - 09:15
   **   ~~~   ** The solution for one or more of the Air Loop HVAC systems did not appear to converge
   **   ~~~   ** Air System Named = CENTRAL SYSTEM did not converge for mass flow rate
   **   ~~~   ** Check values should be zero. Most Recent values listed first.
   **   ~~~   ** Demand-to-Supply interface mass flow rate check value iteration history trace: 7.901907E-002,7.901907E-002,7.901907E-002,7.901907E-002,7.901907E-002,7.901907E-002,7.901907E-002,7.901907E-002,7.901907E-002,7.901907E-002,
   **   ~~~   ** Supply-to-demand interface deck 1 mass flow rate check value iteration history trace: 7.901907E-002,7.901907E-002,7.901907E-002,7.901907E-002,7.901907E-002,7.901907E-002,7.901907E-002,7.901907E-002,7.901907E-002,7.901907E-002,
   **   ~~~   ** Air System Named = CENTRAL SYSTEM did not converge for energy
   **   ~~~   ** Check values should be zero. Most Recent values listed first.
   **   ~~~   ** Demand-to-Supply interface energy check value iteration history trace: 1565.804556,1565.804556,1565.804556,1565.804556,1565.804556,1565.804556,1565.804556,1565.804556,1565.804556,1565.804556,
   **   ~~~   ** Supply-to-demand interface deck 1 energy check value iteration history trace: 2644.420762,2644.420762,2644.420762,2644.420761,2644.420761,2644.420761,2644.420761,2644.420761,2644.420761,2644.420761,
   ** Warning ** SimHVAC: Maximum iterations (20) exceeded for all HVAC loops, at ANNUAL, 01/01 09:00 - 09:08
   **   ~~~   ** The solution for one or more of the Air Loop HVAC systems did not appear to converge
   **   ~~~   ** Air System Named = CENTRAL SYSTEM did not converge for mass flow rate
   **   ~~~   ** Check values should be zero. Most Recent values listed first.
   **   ~~~   ** Demand-to-Supply interface mass flow rate check value iteration history trace: 7.922651E-002,7.922651E-002,7.922651E-002,7.922651E-002,7.922651E-002,7.922651E-002,7.922651E-002,7.922651E-002,7.922651E-002,7.922651E-002,
   **   ~~~   ** Supply-to-demand interface deck 1 mass flow rate check value iteration history trace: 7.922651E-002,7.922651E-002,7.922651E-002,7.922651E-002,7.922651E-002,7.922651E-002,7.922651E-002,7.922651E-002,7.922651E-002,7.922651E-002,
   **   ~~~   ** Air System Named = CENTRAL SYSTEM did not converge for energy
   **   ~~~   ** Check values should be zero. Most Recent values listed first.
   **   ~~~   ** Demand-to-Supply interface energy check value iteration history trace: 1569.908516,1569.908516,1569.908516,1569.908516,1569.908516,1569.908516,1569.908516,1569.908516,1569.908516,1569.908516,
   **   ~~~   ** Supply-to-demand interface deck 1 energy check value iteration history trace: 2651.322224,2651.322224,2651.322224,2651.322224,2651.322224,2651.322224,2651.322224,2651.322223,2651.322223,2651.322223,
   ** Warning ** SimHVAC: Maximum iterations (20) exceeded for all HVAC loops, at ANNUAL, 01/10 10:53 - 11:00
   **   ~~~   ** The solution for one or more of the Air Loop HVAC systems did not appear to converge
   **   ~~~   ** Air System Named = CENTRAL SYSTEM did not converge for mass flow rate
   **   ~~~   ** Check values should be zero. Most Recent values listed first.
   **   ~~~   ** Demand-to-Supply interface mass flow rate check value iteration history trace: 6.962122E-002,6.962122E-002,6.962122E-002,6.962122E-002,6.962122E-002,6.962122E-002,6.962122E-002,6.962122E-002,6.962122E-002,6.962122E-002,
   **   ~~~   ** Supply-to-demand interface deck 1 mass flow rate check value iteration history trace: 6.962122E-002,6.962122E-002,6.962122E-002,6.962122E-002,6.962122E-002,6.962122E-002,6.962122E-002,6.962122E-002,6.962122E-002,6.962122E-002,
   **   ~~~   ** Air System Named = CENTRAL SYSTEM did not converge for energy
   **   ~~~   ** Check values should be zero. Most Recent values listed first.
   **   ~~~   ** Demand-to-Supply interface energy check value iteration history trace: 1379.144906,1379.144906,1379.144906,1379.144906,1379.144906,1379.144906,1379.144906,1379.144906,1379.144906,1379.144906,
   **   ~~~   ** Supply-to-demand interface deck 1 energy check value iteration history trace: 2417.059277,2417.059277,2417.059277,2417.059277,2417.059277,2417.059277,2417.059277,2417.059276,2417.059276,2417.059276,
   ** Warning ** SimHVAC: Maximum iterations (20) exceeded for all HVAC loops, at ANNUAL, 01/10 20:15 - 20:22
   **   ~~~   ** The solution for one or more of the Air Loop HVAC systems did not appear to converge
   **   ~~~   ** Air System Named = CENTRAL SYSTEM did not converge for mass flow rate
   **   ~~~   ** Check values should be zero. Most Recent values listed first.
   **   ~~~   ** Demand-to-Supply interface mass flow rate check value iteration history trace: 6.698730E-002,6.698730E-002,6.698730E-002,6.698730E-002,6.698730E-002,6.698730E-002,6.698730E-002,6.698730E-002,6.698730E-002,6.698730E-002,
   **   ~~~   ** Supply-to-demand interface deck 1 mass flow rate check value iteration history trace: 6.698730E-002,6.698730E-002,6.698730E-002,6.698730E-002,6.698730E-002,6.698730E-002,6.698730E-002,6.698730E-002,6.698730E-002,6.698730E-002,
   **   ~~~   ** Air System Named = CENTRAL SYSTEM did not converge for energy
   **   ~~~   ** Check values should be zero. Most Recent values listed first.
   **   ~~~   ** Demand-to-Supply interface energy check value iteration history trace: 1324.516607,1324.516607,1324.516607,1324.516607,1324.516607,1324.516607,1324.516607,1324.516607,1324.516607,1324.516607,
   **   ~~~   ** Supply-to-demand interface deck 1 energy check value iteration history trace: 2266.922674,2266.922674,2266.922674,2266.922674,2266.922674,2266.922674,2266.922674,2266.922673,2266.922673,2266.922673,
   ** Warning ** SimHVAC: Maximum iterations (20) exceeded for all HVAC loops, at ANNUAL, 01/11 09:00 - 09:15
   **   ~~~   ** The solution for one or more of the Air Loop HVAC systems did not appear to converge
   **   ~~~   ** Air System Named = CENTRAL SYSTEM did not converge for mass flow rate
   **   ~~~   ** Check values should be zero. Most Recent values listed first.
   **   ~~~   ** Demand-to-Supply interface mass flow rate check value iteration history trace: 5.020469E-002,5.020469E-002,5.020469E-002,5.020469E-002,5.020469E-002,5.020469E-002,5.020469E-002,5.020469E-002,5.020469E-002,5.020469E-002,
   **   ~~~   ** Supply-to-demand interface deck 1 mass flow rate check value iteration history trace: 5.020469E-002,5.020469E-002,5.020469E-002,5.020469E-002,5.020469E-002,5.020469E-002,5.020469E-002,5.020469E-002,5.020469E-002,5.020469E-002,
   **   ~~~   ** Air System Named = CENTRAL SYSTEM did not converge for energy
   **   ~~~   ** Check values should be zero. Most Recent values listed first.
   **   ~~~   ** Demand-to-Supply interface energy check value iteration history trace: 993.780983,993.780983,993.780983,993.780983,993.780983,993.780983,993.780983,993.780983,993.780983,993.780983,
   **   ~~~   ** Supply-to-demand interface deck 1 energy check value iteration history trace: 1834.457361,1834.457361,1834.457361,1834.457361,1834.457361,1834.457361,1834.457361,1834.457360,1834.457360,1834.457360,
   ** Warning ** SimHVAC: Maximum iterations (20) exceeded for all HVAC loops, at ANNUAL, 01/29 11:25 - 11:30
   **   ~~~   ** The solution for one or more of the Air Loop HVAC systems did not appear to converge
   **   ~~~   ** Air System Named = CENTRAL SYSTEM did not converge for mass flow rate
   **   ~~~   ** Check values should be zero. Most Recent values listed first.
   **   ~~~   ** Demand-to-Supply interface mass flow rate check value iteration history trace: 6.379614E-002,6.379614E-002,6.379614E-002,6.379614E-002,6.379614E-002,6.379614E-002,6.379614E-002,6.379614E-002,6.379614E-002,6.379614E-002,
   **   ~~~   ** Supply-to-demand interface deck 1 mass flow rate check value iteration history trace: 6.379614E-002,6.379614E-002,6.379614E-002,6.379614E-002,6.379614E-002,6.379614E-002,6.379614E-002,6.379614E-002,6.379614E-002,6.379614E-002,
   **   ~~~   ** Air System Named = CENTRAL SYSTEM did not converge for energy
   **   ~~~   ** Check values should be zero. Most Recent values listed first.
   **   ~~~   ** Demand-to-Supply interface energy check value iteration history trace: 1253.427140,1253.427140,1253.427140,1253.427140,1253.427140,1253.427140,1253.427140,1253.427140,1253.427140,1253.427140,
   **   ~~~   ** Supply-to-demand interface deck 1 energy check value iteration history trace: 2272.699453,2272.699453,2272.699453,2272.699453,2272.699453,2272.699453,2272.699453,2272.699453,2272.699453,2272.699453,
   ** Warning ** SimHVAC: Maximum iterations (20) exceeded for all HVAC loops, at ANNUAL, 01/30 08:30 - 08:45
   **   ~~~   ** The solution for one or more of the Air Loop HVAC systems did not appear to converge
   **   ~~~   ** Air System Named = CENTRAL SYSTEM did not converge for mass flow rate
   **   ~~~   ** Check values should be zero. Most Recent values listed first.
   **   ~~~   ** Demand-to-Supply interface mass flow rate check value iteration history trace: 7.239966E-002,7.239966E-002,7.239966E-002,7.239966E-002,7.239966E-002,7.239966E-002,7.239966E-002,7.239966E-002,7.239966E-002,7.239966E-002,
   **   ~~~   ** Supply-to-demand interface deck 1 mass flow rate check value iteration history trace: 7.239966E-002,7.239966E-002,7.239966E-002,7.239966E-002,7.239966E-002,7.239966E-002,7.239966E-002,7.239966E-002,7.239966E-002,7.239966E-002,
   **   ~~~   ** Air System Named = CENTRAL SYSTEM did not converge for energy
   **   ~~~   ** Check values should be zero. Most Recent values listed first.
   **   ~~~   ** Demand-to-Supply interface energy check value iteration history trace: 1434.609326,1434.609326,1434.609326,1434.609326,1434.609326,1434.609326,1434.609326,1434.609326,1434.609325,1434.609325,
   **   ~~~   ** Supply-to-demand interface deck 1 energy check value iteration history trace: 2424.287981,2424.287981,2424.287981,2424.287981,2424.287981,2424.287981,2424.287981,2424.287981,2424.287980,2424.287980,
   ** Warning ** SimHVAC: Maximum iterations (20) exceeded for all HVAC loops, at ANNUAL, 02/02 10:30 - 10:34
   **   ~~~   ** The solution for one or more of the Air Loop HVAC systems did not appear to converge
   **   ~~~   ** Air System Named = CENTRAL SYSTEM did not converge for mass flow rate
   **   ~~~   ** Check values should be zero. Most Recent values listed first.
   **   ~~~   ** Demand-to-Supply interface mass flow rate check value iteration history trace: 6.941626E-002,6.941626E-002,6.941626E-002,6.941626E-002,6.941626E-002,6.941626E-002,6.941626E-002,6.941626E-002,6.941626E-002,6.941626E-002,
   **   ~~~   ** Supply-to-demand interface deck 1 mass flow rate check value iteration history trace: 6.941626E-002,6.941626E-002,6.941626E-002,6.941626E-002,6.941626E-002,6.941626E-002,6.941626E-002,6.941626E-002,6.941626E-002,6.941626E-002,
   **   ~~~   ** Air System Named = CENTRAL SYSTEM did not converge for energy
   **   ~~~   ** Check values should be zero. Most Recent values listed first.
   **   ~~~   ** Demand-to-Supply interface energy check value iteration history trace: 1375.583943,1375.583943,1375.583943,1375.583943,1375.583943,1375.583943,1375.583942,1375.583942,1375.583942,1375.583942,
   **   ~~~   ** Supply-to-demand interface deck 1 energy check value iteration history trace: 2357.101881,2357.101881,2357.101881,2357.101881,2357.101881,2357.101880,2357.101880,2357.101880,2357.101880,2357.101880,
   ** Warning ** SimHVAC: Maximum iterations (20) exceeded for all HVAC loops, at ANNUAL, 02/02 10:45 - 11:00
   **   ~~~   ** The solution for one or more of the Air Loop HVAC systems did not appear to converge
   **   ~~~   ** Air System Named = CENTRAL SYSTEM did not converge for mass flow rate
   **   ~~~   ** Check values should be zero. Most Recent values listed first.
   **   ~~~   ** Demand-to-Supply interface mass flow rate check value iteration history trace: 6.732199E-002,6.732199E-002,6.732199E-002,6.732199E-002,6.732199E-002,6.732199E-002,6.732199E-002,6.732199E-002,6.732199E-002,6.732199E-002,
   **   ~~~   ** Supply-to-demand interface deck 1 mass flow rate check value iteration history trace: 6.732199E-002,6.732199E-002,6.732199E-002,6.732199E-002,6.732199E-002,6.732199E-002,6.732199E-002,6.732199E-002,6.732199E-002,6.732199E-002,
   **   ~~~   ** Air System Named = CENTRAL SYSTEM did not converge for energy
   **   ~~~   ** Check values should be zero. Most Recent values listed first.
   **   ~~~   ** Demand-to-Supply interface energy check value iteration history trace: 1333.705943,1333.705943,1333.705942,1333.705942,1333.705942,1333.705942,1333.705942,1333.705942,1333.705942,1333.705942,
   **   ~~~   ** Supply-to-demand interface deck 1 energy check value iteration history trace: 2285.775756,2285.775756,2285.775756,2285.775755,2285.775755,2285.775755,2285.775755,2285.775755,2285.775755,2285.775755,
   ** Warning ** SimHVAC: Maximum iterations (20) exceeded for all HVAC loops, at ANNUAL, 02/13 22:45 - 23:00
   **   ~~~   ** The solution for one or more of the Air Loop HVAC systems did not appear to converge
   **   ~~~   ** Air System Named = CENTRAL SYSTEM did not converge for mass flow rate
   **   ~~~   ** Check values should be zero. Most Recent values listed first.
   **   ~~~   ** Demand-to-Supply interface mass flow rate check value iteration history trace: 8.738302E-002,8.738302E-002,8.738302E-002,8.738302E-002,8.738302E-002,8.738302E-002,8.738302E-002,8.738302E-002,8.738302E-002,8.738302E-002,
   **   ~~~   ** Supply-to-demand interface deck 1 mass flow rate check value iteration history trace: 8.738302E-002,8.738302E-002,8.738302E-002,8.738302E-002,8.738302E-002,8.738302E-002,8.738302E-002,8.738302E-002,8.738302E-002,8.738302E-002,
   **   ~~~   ** Air System Named = CENTRAL SYSTEM did not converge for energy
   **   ~~~   ** Check values should be zero. Most Recent values listed first.
   **   ~~~   ** Demand-to-Supply interface energy check value iteration history trace: 1628.296759,1628.296759,1628.296759,1628.296759,1628.296759,1628.296759,1628.296758,1628.296758,1628.296758,1628.296758,
   **   ~~~   ** Supply-to-demand interface deck 1 energy check value iteration history trace: 2509.527406,2509.527406,2509.527406,2509.527405,2509.527405,2509.527405,2509.527405,2509.527405,2509.527405,2509.527405,
   ** Warning ** SimHVAC: Maximum iterations (20) exceeded for all HVAC loops, at ANNUAL, 03/10 09:32 - 09:33
   **   ~~~   ** The solution for one or more of the Air Loop HVAC systems did not appear to converge
   **   ~~~   ** Air System Named = CENTRAL SYSTEM did not converge for mass flow rate
   **   ~~~   ** Check values should be zero. Most Recent values listed first.
   **   ~~~   ** Demand-to-Supply interface mass flow rate check value iteration history trace: 0.106044,0.106044,0.106044,0.106044,0.106044,0.106044,0.106044,0.106044,0.106044,0.106044,
   **   ~~~   ** Supply-to-demand interface deck 1 mass flow rate check value iteration history trace: 0.106044,0.106044,0.106044,0.106044,0.106044,0.106044,0.106044,0.106044,0.106044,0.106044,
   **   ~~~   ** Air System Named = CENTRAL SYSTEM did not converge for energy
   **   ~~~   ** Check values should be zero. Most Recent values listed first.
   **   ~~~   ** Demand-to-Supply interface energy check value iteration history trace: 2101.570326,2101.570325,2101.570325,2101.570325,2101.570325,2101.570325,2101.570325,2101.570325,2101.570324,2101.570324,
   **   ~~~   ** Supply-to-demand interface deck 1 energy check value iteration history trace: 3286.424274,3286.424274,3286.424274,3286.424274,3286.424274,3286.424273,3286.424273,3286.424273,3286.424273,3286.424272,
   ** Warning ** SimHVAC: Maximum iterations (20) exceeded for all HVAC loops, at ANNUAL, 03/12 09:25 - 09:27
   **   ~~~   ** The solution for one or more of the Air Loop HVAC systems did not appear to converge
   **   ~~~   ** Air System Named = CENTRAL SYSTEM did not converge for mass flow rate
   **   ~~~   ** Check values should be zero. Most Recent values listed first.
   **   ~~~   ** Demand-to-Supply interface mass flow rate check value iteration history trace: 6.769430E-002,6.769430E-002,6.769430E-002,6.769430E-002,6.769430E-002,6.769430E-002,6.769430E-002,6.769430E-002,6.769430E-002,6.769430E-002,
   **   ~~~   ** Supply-to-demand interface deck 1 mass flow rate check value iteration history trace: 6.769430E-002,6.769430E-002,6.769430E-002,6.769430E-002,6.769430E-002,6.769430E-002,6.769430E-002,6.769430E-002,6.769430E-002,6.769430E-002,
   **   ~~~   ** Air System Named = CENTRAL SYSTEM did not converge for energy
   **   ~~~   ** Check values should be zero. Most Recent values listed first.
   **   ~~~   ** Demand-to-Supply interface energy check value iteration history trace: 1338.897775,1338.897775,1338.897775,1338.897774,1338.897774,1338.897774,1338.897774,1338.897774,1338.897774,1338.897774,
   **   ~~~   ** Supply-to-demand interface deck 1 energy check value iteration history trace: 2383.550579,2383.550579,2383.550579,2383.550579,2383.550579,2383.550579,2383.550579,2383.550579,2383.550578,2383.550578,
   ** Warning ** SimHVAC: Maximum iterations (20) exceeded for all HVAC loops, at ANNUAL, 03/19 11:15 - 11:22
   **   ~~~   ** The solution for one or more of the Air Loop HVAC systems did not appear to converge
   **   ~~~   ** Air System Named = CENTRAL SYSTEM did not converge for mass flow rate
   **   ~~~   ** Check values should be zero. Most Recent values listed first.
   **   ~~~   ** Demand-to-Supply interface mass flow rate check value iteration history trace: 6.472399E-002,6.472399E-002,6.472399E-002,6.472399E-002,6.472399E-002,6.472399E-002,6.472399E-002,6.472399E-002,6.472399E-002,6.472399E-002,
   **   ~~~   ** Supply-to-demand interface deck 1 mass flow rate check value iteration history trace: 6.472399E-002,6.472399E-002,6.472399E-002,6.472399E-002,6.472399E-002,6.472399E-002,6.472399E-002,6.472399E-002,6.472399E-002,6.472399E-002,
   **   ~~~   ** Air System Named = CENTRAL SYSTEM did not converge for energy
   **   ~~~   ** Check values should be zero. Most Recent values listed first.
   **   ~~~   ** Demand-to-Supply interface energy check value iteration history trace: 1282.556641,1282.556641,1282.556641,1282.556641,1282.556641,1282.556641,1282.556641,1282.556641,1282.556641,1282.556641,
   **   ~~~   ** Supply-to-demand interface deck 1 energy check value iteration history trace: 2229.545615,2229.545615,2229.545615,2229.545615,2229.545614,2229.545614,2229.545614,2229.545614,2229.545614,2229.545614,
   ************* Simulation Error Summary *************
   ** Warning ** The following Report Variables were requested but not generated -- check.rdd file
   **   ~~~   ** Either the IDF did not contain these elements, the variable name is misspelled,
   **   ~~~   ** or the requested variable is an advanced output which requires Output : Diagnostics, DisplayAdvancedReportVariables;
   ************* Key=*, VarName=BASEBOARD TOTAL HEATING ENERGY, Frequency=
   ************* Key=*, VarName=WATER HEATER NATURALGAS ENERGY, Frequency=
   ************* Key=*, VarName=COOLING COIL TOTAL HEATING ENERGY, Frequency=
   ************* There are 34 unused schedules in input.
   ************* There are 388 unused week schedules in input.
   ************* There are 396 unused day schedules in input.
   ************* Use Output:Diagnostics,DisplayUnusedSchedules; to see them.
   *************
   ************* ===== Recurring Error Summary =====
   ************* The following recurring error messages occurred.
   *************
   *************  ** Warning ** "TOTAL HOT WATER LOAD" - Target water temperature should be less than or equal to the hot water temperature error continues...
   *************  **   ~~~   **   This error occurred 181605 total times;
   *************  **   ~~~   **   during Warmup 0 times;
   *************  **   ~~~   **   during Sizing 0 times.
   *************  **   ~~~   **   Max=12.082447  Min=9.424370E-004
   *************
   *************  ** Warning ** SimHVAC: Exceeding Maximum iterations for all HVAC loops, during ANNUAL continues
   *************  **   ~~~   **   This error occurred 15 total times;
   *************  **   ~~~   **   during Warmup 0 times;
   *************  **   ~~~   **   during Sizing 0 times.
   *************
   *************
   ************* ===== Final Error Summary =====
   ************* The following error categories occurred.  Consider correcting or noting.
   ************* Nominally Unused Constructions
   ************* ..The nominally unused constructions warning is provided to alert you to potential conditions that can cause
   ************* ..extra time during simulation. Each construction is calculated by the algorithm indicated in the HeatBalanceAlgorithm
   ************* ..object. You may remove the constructions indicated (when you use the DisplayExtraWarnings option).
   *************
   ************* EnergyPlus Warmup Error Summary. During Warmup: 1 Warning; 0 Severe Errors.
   ************* EnergyPlus Sizing Error Summary. During Sizing: 4 Warning; 0 Severe Errors.
   ************* EnergyPlus Completed Successfully-- 181652 Warning; 0 Severe Errors; Elapsed Time=00hr 01min 42.89sec
