Program Version,EnergyPlus, Version 22.2.0-c249759bad, YMD=2023.09.01 17:18,
   ************* Beginning Zone Sizing Calculations
   ** Warning ** ProcessScheduleInput: Schedule:Constant="ALWAYS ON DISCRETE", Schedule Type Limits Name="ONOFF" not found -- will not be validated
   ** Warning ** Foundation:Kiva="KIVA FOUNDATION", no Interior Horizontal Insulation Material Name defined
   **   ~~~   ** Interior Horizontal Insulation Depth will not be used.
   ** Warning ** CheckUsedConstructions: There are 15 nominally unused constructions in input.
   **   ~~~   ** Each Unused construction is shown.
   ************* Construction=INTERIOR FLOOR
   ************* Construction=INTERIOR WINDOW
   ************* Construction=EXTERIOR DOOR
   ************* Construction=INTERIOR DOOR
   ************* Construction=GABLE CONSTRUCTION
   ************* Construction=CRAWL_FLOOR
   ************* Construction=INSULATED PIPE
   ************* Construction=PLAIN PIPE
   ************* Construction=TDD PIPE
   ************* Construction=TDD DOME
   ************* Construction=TDD DIFFUSER
   ************* Construction=CRAWL WALL
   ************* Construction=CEILING-FLOOR-LAYER
   ************* Construction=SLAB CONSTRUCTION W FULL R10 INSULATION
   ************* Construction=SLAB CONSTRUCTION W FULL R5 INSULATION
   ** Warning ** GetDXCoils: Coil:Heating:DX:SingleSpeed="DX_HEATING_COIL" curve values
   **   ~~~   ** ... Defrost Energy Input Ratio Function of Temperature Curve Name = DEFROSTEIR output is not equal to 1.0 (+ or - 10%) at rated conditions.
   **   ~~~   ** ... Curve output at rated conditions = 0.152
   ************* Beginning System Sizing Calculations
   ************* Beginning Plant Sizing Calculations
   ** Warning ** Coil:WaterHeating:AirToWaterHeatPump:Wrapped "HEAT PUMP WATER HEATER EVAPORATOR": Rated air volume flow rate per watt of rated total water heating capacity is out of range
   **   ~~~   ** Min Rated Vol Flow Per Watt=[4.027E-005], Rated Vol Flow Per Watt=[1.510E-004], Max Rated Vol Flow Per Watt=[8.056E-005]. See Input-Output Reference Manual for valid range.
   ************* SizeFan: : Potential issue with equipment sizing for Fan:OnOff HEAT PUMP WATER HEATER FAN
   **   ~~~   ** User-Specified Maximum Flow Rate [m3/s] = 0.22653
   **   ~~~   ** differs from Design Size Maximum Flow Rate [m3/s] = 7.55250E-002
   **   ~~~   ** This may, or may not, indicate mismatched component sizes.
   **   ~~~   ** Verify that the value entered is intended and is consistent with other components.
   ** Warning ** Water heater = WATER HEATER TANK:  Recovery Efficiency and Energy Factor could not be calculated during the test for standard ratings
   **   ~~~   ** Setpoint was never recovered and/or heater never turned on
   ** Warning ** Check input. Pump nominal power or motor efficiency is set to 0, for pump=MAINS PRESSURE
   ** Warning ** Output:Meter: invalid Key Name="ELECTRIC_RANGE:INTERIOREQUIPMENT:ELECTRICITY" - not found.
   ** Warning ** Output:Meter: invalid Key Name="ELECTRIC_DRYER:INTERIOREQUIPMENT:ELECTRICITY" - not found.
   ** Warning ** Output:Meter: invalid Key Name="HEATRECOVERY:ELECTRICITY" - not found.
   ** Warning ** Output:Meter: invalid Key Name="HEATING:NATURALGAS" - not found.
   ** Warning ** Output:Meter: invalid Key Name="WATERSYSTEMS:NATURALGAS" - not found.
   ** Warning ** Output:Meter: invalid Key Name="PROPANE:FACILITY" - not found.
   ** Warning ** Output:Meter: invalid Key Name="HEATING:PROPANE" - not found.
   ************* Testing Individual Branch Integrity
   ************* All Branches passed integrity testing
   ************* Testing Individual Supply Air Path Integrity
   ************* All Supply Air Paths passed integrity testing
   ************* Testing Individual Return Air Path Integrity
   ************* All Return Air Paths passed integrity testing
   ************* No node connection errors were found.
   ************* Beginning Simulation
   ** Warning ** AirflowNetwork::Solver::validate_distribution: Heat pump water heater is simulated along with an AirflowNetwork but is not included in the AirflowNetwork.
   ** Warning ** CalcEquipmentFlowRates: "TOTAL HOT WATER LOAD" - Target water temperature is greater than the hot water temperature by (0.66 C)
   **   ~~~   **  Environment=EXTREME_WINTER, at Simulation time=12/22 06:00 - 06:15
   **   ~~~   ** ...target water temperature     = 53.33 C
   **   ~~~   ** ...hot water temperature        = 52.67 C
   **   ~~~   ** ...Target water temperature should be less than or equal to the hot water temperature. Verify temperature setpoints and schedules.
   ** Warning ** SimHVAC: Maximum iterations (20) exceeded for all HVAC loops, at EXTREME_WINTER, 12/31 15:50 - 15:55
   **   ~~~   ** The solution for one or more of the Air Loop HVAC systems did not appear to converge
   **   ~~~   ** Air System Named = CENTRAL SYSTEM did not converge for mass flow rate
   **   ~~~   ** Check values should be zero. Most Recent values listed first.
   **   ~~~   ** Demand-to-Supply interface mass flow rate check value iteration history trace: 9.814787E-002,9.814787E-002,9.814787E-002,9.814787E-002,9.814787E-002,9.814787E-002,9.814787E-002,9.814787E-002,9.814787E-002,9.814787E-002,
   **   ~~~   ** Supply-to-demand interface deck 1 mass flow rate check value iteration history trace: 9.814787E-002,9.814787E-002,9.814787E-002,9.814787E-002,9.814787E-002,9.814787E-002,9.814787E-002,9.814787E-002,9.814787E-002,9.814787E-002,
   **   ~~~   ** Air System Named = CENTRAL SYSTEM did not converge for energy
   **   ~~~   ** Check values should be zero. Most Recent values listed first.
   **   ~~~   ** Demand-to-Supply interface energy check value iteration history trace: 1943.193142,1943.193142,1943.193142,1943.193142,1943.193142,1943.193142,1943.193142,1943.193142,1943.193141,1943.193141,
   **   ~~~   ** Supply-to-demand interface deck 1 energy check value iteration history trace: 2996.452230,2996.452230,2996.452230,2996.452230,2996.452230,2996.452229,2996.452229,2996.452229,2996.452229,2996.452229,
   ** Warning ** SimHVAC: Maximum iterations (20) exceeded for all HVAC loops, at ANNUAL, 03/18 09:19 - 09:22
   **   ~~~   ** The solution for one or more of the Air Loop HVAC systems did not appear to converge
   **   ~~~   ** Air System Named = CENTRAL SYSTEM did not converge for mass flow rate
   **   ~~~   ** Check values should be zero. Most Recent values listed first.
   **   ~~~   ** Demand-to-Supply interface mass flow rate check value iteration history trace: 6.786762E-002,6.786762E-002,6.786762E-002,6.786762E-002,6.786762E-002,6.786762E-002,6.786762E-002,6.786762E-002,6.786762E-002,6.786762E-002,
   **   ~~~   ** Supply-to-demand interface deck 1 mass flow rate check value iteration history trace: 6.786762E-002,6.786762E-002,6.786762E-002,6.786762E-002,6.786762E-002,6.786762E-002,6.786762E-002,6.786762E-002,6.786762E-002,6.786762E-002,
   **   ~~~   ** Air System Named = CENTRAL SYSTEM did not converge for energy
   **   ~~~   ** Check values should be zero. Most Recent values listed first.
   **   ~~~   ** Demand-to-Supply interface energy check value iteration history trace: 1337.101823,1337.101823,1337.101823,1337.101823,1337.101823,1337.101823,1337.101822,1337.101822,1337.101822,1337.101822,
   **   ~~~   ** Supply-to-demand interface deck 1 energy check value iteration history trace: 2422.202347,2422.202347,2422.202347,2422.202347,2422.202346,2422.202346,2422.202346,2422.202346,2422.202346,2422.202346,
   ** Warning ** SimHVAC: Maximum iterations (20) exceeded for all HVAC loops, at ANNUAL, 03/29 20:45 - 21:00
   **   ~~~   ** The solution for one or more of the Air Loop HVAC systems did not appear to converge
   **   ~~~   ** Air System Named = CENTRAL SYSTEM did not converge for mass flow rate
   **   ~~~   ** Check values should be zero. Most Recent values listed first.
   **   ~~~   ** Demand-to-Supply interface mass flow rate check value iteration history trace: 9.545349E-002,9.545349E-002,9.545349E-002,9.545349E-002,9.545349E-002,9.545349E-002,9.545349E-002,9.545349E-002,9.545349E-002,9.545349E-002,
   **   ~~~   ** Supply-to-demand interface deck 1 mass flow rate check value iteration history trace: 9.545349E-002,9.545349E-002,9.545349E-002,9.545349E-002,9.545349E-002,9.545349E-002,9.545349E-002,9.545349E-002,9.545349E-002,9.545349E-002,
   **   ~~~   ** Air System Named = CENTRAL SYSTEM did not converge for energy
   **   ~~~   ** Check values should be zero. Most Recent values listed first.
   **   ~~~   ** Demand-to-Supply interface energy check value iteration history trace: 1869.946043,1869.946043,1869.946043,1869.946042,1869.946042,1869.946042,1869.946042,1869.946042,1869.946042,1869.946042,
   **   ~~~   ** Supply-to-demand interface deck 1 energy check value iteration history trace: 2820.821397,2820.821397,2820.821397,2820.821396,2820.821396,2820.821396,2820.821396,2820.821396,2820.821395,2820.821395,
   ** Warning ** SimHVAC: Maximum iterations (20) exceeded for all HVAC loops, at ANNUAL, 04/03 20:15 - 20:20
   **   ~~~   ** The solution for one or more of the Air Loop HVAC systems did not appear to converge
   **   ~~~   ** Air System Named = CENTRAL SYSTEM did not converge for mass flow rate
   **   ~~~   ** Check values should be zero. Most Recent values listed first.
   **   ~~~   ** Demand-to-Supply interface mass flow rate check value iteration history trace: 8.445342E-002,8.445342E-002,8.445342E-002,8.445342E-002,8.445342E-002,8.445342E-002,8.445342E-002,8.445342E-002,8.445342E-002,8.445342E-002,
   **   ~~~   ** Supply-to-demand interface deck 1 mass flow rate check value iteration history trace: 8.445342E-002,8.445342E-002,8.445342E-002,8.445342E-002,8.445342E-002,8.445342E-002,8.445342E-002,8.445342E-002,8.445342E-002,8.445342E-002,
   **   ~~~   ** Air System Named = CENTRAL SYSTEM did not converge for energy
   **   ~~~   ** Check values should be zero. Most Recent values listed first.
   **   ~~~   ** Demand-to-Supply interface energy check value iteration history trace: 1673.818555,1673.818555,1673.818555,1673.818555,1673.818555,1673.818555,1673.818554,1673.818554,1673.818554,1673.818554,
   **   ~~~   ** Supply-to-demand interface deck 1 energy check value iteration history trace: 2592.137123,2592.137123,2592.137123,2592.137123,2592.137123,2592.137122,2592.137122,2592.137122,2592.137122,2592.137122,
   ** Warning ** SimHVAC: Maximum iterations (20) exceeded for all HVAC loops, at ANNUAL, 05/10 07:15 - 07:20
   **   ~~~   ** The solution for one or more of the Air Loop HVAC systems did not appear to converge
   **   ~~~   ** Air System Named = CENTRAL SYSTEM did not converge for mass flow rate
   **   ~~~   ** Check values should be zero. Most Recent values listed first.
   **   ~~~   ** Demand-to-Supply interface mass flow rate check value iteration history trace: 7.779375E-002,7.779375E-002,7.779375E-002,7.779375E-002,7.779375E-002,7.779375E-002,7.779375E-002,7.779375E-002,7.779375E-002,7.779375E-002,
   **   ~~~   ** Supply-to-demand interface deck 1 mass flow rate check value iteration history trace: 7.779375E-002,7.779375E-002,7.779375E-002,7.779375E-002,7.779375E-002,7.779375E-002,7.779375E-002,7.779375E-002,7.779375E-002,7.779375E-002,
   **   ~~~   ** Air System Named = CENTRAL SYSTEM did not converge for energy
   **   ~~~   ** Check values should be zero. Most Recent values listed first.
   **   ~~~   ** Demand-to-Supply interface energy check value iteration history trace: 1536.472162,1536.472162,1536.472161,1536.472161,1536.472161,1536.472161,1536.472161,1536.472161,1536.472161,1536.472161,
   **   ~~~   ** Supply-to-demand interface deck 1 energy check value iteration history trace: 2623.052135,2623.052135,2623.052135,2623.052135,2623.052135,2623.052135,2623.052135,2623.052134,2623.052134,2623.052134,
   ** Warning ** SimHVAC: Maximum iterations (20) exceeded for all HVAC loops, at ANNUAL, 06/23 20:45 - 21:00
   **   ~~~   ** The solution for one or more of the Air Loop HVAC systems did not appear to converge
   **   ~~~   ** Air System Named = CENTRAL SYSTEM did not converge for mass flow rate
   **   ~~~   ** Check values should be zero. Most Recent values listed first.
   **   ~~~   ** Demand-to-Supply interface mass flow rate check value iteration history trace: 4.463166E-002,4.463166E-002,4.463166E-002,4.463166E-002,4.463166E-002,4.463166E-002,4.463166E-002,4.463166E-002,4.463166E-002,4.463166E-002,
   **   ~~~   ** Supply-to-demand interface deck 1 mass flow rate check value iteration history trace: 4.463166E-002,4.463166E-002,4.463166E-002,4.463166E-002,4.463166E-002,4.463166E-002,4.463166E-002,4.463166E-002,4.463166E-002,4.463166E-002,
   **   ~~~   ** Air System Named = CENTRAL SYSTEM did not converge for energy
   **   ~~~   ** Check values should be zero. Most Recent values listed first.
   **   ~~~   ** Demand-to-Supply interface energy check value iteration history trace: 1037.711137,1037.711137,1037.711137,1037.711137,1037.711137,1037.711137,1037.711137,1037.711137,1037.711137,1037.711137,
   **   ~~~   ** Supply-to-demand interface deck 1 energy check value iteration history trace: 548.214716,548.214716,548.214716,548.214716,548.214716,548.214716,548.214716,548.214716,548.214716,548.214716,
   ** Warning ** SimHVAC: Maximum iterations (20) exceeded for all HVAC loops, at ANNUAL, 07/01 05:25 - 05:30
   **   ~~~   ** The solution for one or more of the Air Loop HVAC systems did not appear to converge
   **   ~~~   ** Air System Named = CENTRAL SYSTEM did not converge for mass flow rate
   **   ~~~   ** Check values should be zero. Most Recent values listed first.
   **   ~~~   ** Demand-to-Supply interface mass flow rate check value iteration history trace: 0.263465,0.263465,0.263465,0.263465,0.263465,0.263465,0.263465,0.263465,0.263465,0.263465,
   **   ~~~   ** Supply-to-demand interface deck 1 mass flow rate check value iteration history trace: 0.263465,0.263465,0.263465,0.263465,0.263465,0.263465,0.263465,0.263465,0.263465,0.263465,
   **   ~~~   ** Air System Named = CENTRAL SYSTEM did not converge for energy
   **   ~~~   ** Check values should be zero. Most Recent values listed first.
   **   ~~~   ** Demand-to-Supply interface energy check value iteration history trace: 6305.752080,6305.752082,6305.752084,6305.752087,6305.752089,6305.752091,6305.752093,6305.752096,6305.752098,6305.752100,
   **   ~~~   ** Supply-to-demand interface deck 1 energy check value iteration history trace: 3733.897438,3733.897439,3733.897441,3733.897442,3733.897443,3733.897445,3733.897446,3733.897447,3733.897449,3733.897450,
   ** Warning ** SimHVAC: Maximum iterations (20) exceeded for all HVAC loops, at ANNUAL, 09/18 11:19 - 11:21
   **   ~~~   ** The solution for one or more of the Air Loop HVAC systems did not appear to converge
   **   ~~~   ** Air System Named = CENTRAL SYSTEM did not converge for mass flow rate
   **   ~~~   ** Check values should be zero. Most Recent values listed first.
   **   ~~~   ** Demand-to-Supply interface mass flow rate check value iteration history trace: 0.154018,0.154018,0.154018,0.154018,0.154018,0.154018,0.154018,0.154018,0.154018,0.154018,
   **   ~~~   ** Supply-to-demand interface deck 1 mass flow rate check value iteration history trace: 0.154018,0.154018,0.154018,0.154018,0.154018,0.154018,0.154018,0.154018,0.154018,0.154018,
   **   ~~~   ** Air System Named = CENTRAL SYSTEM did not converge for energy
   **   ~~~   ** Check values should be zero. Most Recent values listed first.
   **   ~~~   ** Demand-to-Supply interface energy check value iteration history trace: 3642.592654,3642.592655,3642.592655,3642.592656,3642.592656,3642.592657,3642.592657,3642.592658,3642.592658,3642.592659,
   **   ~~~   ** Supply-to-demand interface deck 1 energy check value iteration history trace: 1733.680795,1733.680795,1733.680795,1733.680795,1733.680796,1733.680796,1733.680796,1733.680796,1733.680797,1733.680797,
   ** Warning ** SimHVAC: Maximum iterations (20) exceeded for all HVAC loops, at ANNUAL, 09/18 12:11 - 12:15
   **   ~~~   ** The solution for one or more of the Air Loop HVAC systems did not appear to converge
   **   ~~~   ** Air System Named = CENTRAL SYSTEM did not converge for mass flow rate
   **   ~~~   ** Check values should be zero. Most Recent values listed first.
   **   ~~~   ** Demand-to-Supply interface mass flow rate check value iteration history trace: 0.288576,0.288576,0.288576,0.288576,0.288576,0.288576,0.288576,0.288576,0.288576,0.288576,
   **   ~~~   ** Supply-to-demand interface deck 1 mass flow rate check value iteration history trace: 0.288576,0.288576,0.288576,0.288576,0.288576,0.288576,0.288576,0.288576,0.288576,0.288576,
   **   ~~~   ** Air System Named = CENTRAL SYSTEM did not converge for energy
   **   ~~~   ** Check values should be zero. Most Recent values listed first.
   **   ~~~   ** Demand-to-Supply interface energy check value iteration history trace: 6869.838107,6869.838108,6869.838109,6869.838110,6869.838111,6869.838112,6869.838113,6869.838114,6869.838115,6869.838116,
   **   ~~~   ** Supply-to-demand interface deck 1 energy check value iteration history trace: 3281.292204,3281.292205,3281.292205,3281.292206,3281.292206,3281.292207,3281.292207,3281.292207,3281.292208,3281.292208,
   ** Warning ** SimHVAC: Maximum iterations (20) exceeded for all HVAC loops, at ANNUAL, 09/25 07:15 - 07:30
   **   ~~~   ** The solution for one or more of the Air Loop HVAC systems did not appear to converge
   **   ~~~   ** Air System Named = CENTRAL SYSTEM did not converge for mass flow rate
   **   ~~~   ** Check values should be zero. Most Recent values listed first.
   **   ~~~   ** Demand-to-Supply interface mass flow rate check value iteration history trace: 4.117629E-002,4.117629E-002,4.117629E-002,4.117629E-002,4.117629E-002,4.117629E-002,4.117629E-002,4.117629E-002,4.117629E-002,4.117629E-002,
   **   ~~~   ** Supply-to-demand interface deck 1 mass flow rate check value iteration history trace: 4.117629E-002,4.117629E-002,4.117629E-002,4.117629E-002,4.117629E-002,4.117629E-002,4.117629E-002,4.117629E-002,4.117629E-002,4.117629E-002,
   **   ~~~   ** Air System Named = CENTRAL SYSTEM did not converge for energy
   **   ~~~   ** Check values should be zero. Most Recent values listed first.
   **   ~~~   ** Demand-to-Supply interface energy check value iteration history trace: 968.691009,968.691009,968.691010,968.691010,968.691010,968.691011,968.691011,968.691011,968.691012,968.691012,
   **   ~~~   ** Supply-to-demand interface deck 1 energy check value iteration history trace: 546.057262,546.057263,546.057263,546.057263,546.057263,546.057263,546.057264,546.057264,546.057264,546.057264,
   ** Warning ** SimHVAC: Maximum iterations (20) exceeded for all HVAC loops, at ANNUAL, 11/08 13:00 - 13:15
   **   ~~~   ** The solution for one or more of the Air Loop HVAC systems did not appear to converge
   **   ~~~   ** Air System Named = CENTRAL SYSTEM did not converge for mass flow rate
   **   ~~~   ** Check values should be zero. Most Recent values listed first.
   **   ~~~   ** Demand-to-Supply interface mass flow rate check value iteration history trace: 2.954222E-002,2.954222E-002,2.954222E-002,2.954222E-002,2.954222E-002,2.954222E-002,2.954222E-002,2.954222E-002,2.954222E-002,2.954222E-002,
   **   ~~~   ** Supply-to-demand interface deck 1 mass flow rate check value iteration history trace: 2.954222E-002,2.954222E-002,2.954222E-002,2.954222E-002,2.954222E-002,2.954222E-002,2.954222E-002,2.954222E-002,2.954222E-002,2.954222E-002,
   **   ~~~   ** Air System Named = CENTRAL SYSTEM did not converge for energy
   **   ~~~   ** Check values should be zero. Most Recent values listed first.
   **   ~~~   ** Demand-to-Supply interface energy check value iteration history trace: 585.395265,585.395265,585.395265,585.395265,585.395265,585.395265,585.395265,585.395265,585.395265,585.395265,
   **   ~~~   ** Supply-to-demand interface deck 1 energy check value iteration history trace: 1008.317168,1008.317168,1008.317168,1008.317167,1008.317167,1008.317167,1008.317167,1008.317167,1008.317167,1008.317167,
   ** Warning ** SimHVAC: Maximum iterations (20) exceeded for all HVAC loops, at ANNUAL, 11/08 19:15 - 19:30
   **   ~~~   ** The solution for one or more of the Air Loop HVAC systems did not appear to converge
   **   ~~~   ** Air System Named = CENTRAL SYSTEM did not converge for mass flow rate
   **   ~~~   ** Check values should be zero. Most Recent values listed first.
   **   ~~~   ** Demand-to-Supply interface mass flow rate check value iteration history trace: 6.527114E-002,6.527114E-002,6.527114E-002,6.527114E-002,6.527114E-002,6.527114E-002,6.527114E-002,6.527114E-002,6.527114E-002,6.527114E-002,
   **   ~~~   ** Supply-to-demand interface deck 1 mass flow rate check value iteration history trace: 6.527114E-002,6.527114E-002,6.527114E-002,6.527114E-002,6.527114E-002,6.527114E-002,6.527114E-002,6.527114E-002,6.527114E-002,6.527114E-002,
   **   ~~~   ** Air System Named = CENTRAL SYSTEM did not converge for energy
   **   ~~~   ** Check values should be zero. Most Recent values listed first.
   **   ~~~   ** Demand-to-Supply interface energy check value iteration history trace: 1283.872378,1283.872378,1283.872378,1283.872378,1283.872378,1283.872378,1283.872378,1283.872378,1283.872378,1283.872378,
   **   ~~~   ** Supply-to-demand interface deck 1 energy check value iteration history trace: 2179.316235,2179.316235,2179.316235,2179.316235,2179.316234,2179.316234,2179.316234,2179.316234,2179.316234,2179.316234,
   ** Warning ** SimHVAC: Maximum iterations (20) exceeded for all HVAC loops, at ANNUAL, 11/13 08:30 - 08:45
   **   ~~~   ** The solution for one or more of the Air Loop HVAC systems did not appear to converge
   **   ~~~   ** Air System Named = CENTRAL SYSTEM did not converge for mass flow rate
   **   ~~~   ** Check values should be zero. Most Recent values listed first.
   **   ~~~   ** Demand-to-Supply interface mass flow rate check value iteration history trace: 6.331443E-002,6.331443E-002,6.331443E-002,6.331443E-002,6.331443E-002,6.331443E-002,6.331443E-002,6.331443E-002,6.331443E-002,6.331443E-002,
   **   ~~~   ** Supply-to-demand interface deck 1 mass flow rate check value iteration history trace: 6.331443E-002,6.331443E-002,6.331443E-002,6.331443E-002,6.331443E-002,6.331443E-002,6.331443E-002,6.331443E-002,6.331443E-002,6.331443E-002,
   **   ~~~   ** Air System Named = CENTRAL SYSTEM did not converge for energy
   **   ~~~   ** Check values should be zero. Most Recent values listed first.
   **   ~~~   ** Demand-to-Supply interface energy check value iteration history trace: 1254.540324,1254.540324,1254.540323,1254.540323,1254.540323,1254.540323,1254.540323,1254.540323,1254.540323,1254.540323,
   **   ~~~   ** Supply-to-demand interface deck 1 energy check value iteration history trace: 2105.811047,2105.811047,2105.811047,2105.811046,2105.811046,2105.811046,2105.811046,2105.811046,2105.811046,2105.811046,
   ** Warning ** SimHVAC: Maximum iterations (20) exceeded for all HVAC loops, at ANNUAL, 11/18 08:45 - 08:48
   **   ~~~   ** The solution for one or more of the Air Loop HVAC systems did not appear to converge
   **   ~~~   ** Air System Named = CENTRAL SYSTEM did not converge for mass flow rate
   **   ~~~   ** Check values should be zero. Most Recent values listed first.
   **   ~~~   ** Demand-to-Supply interface mass flow rate check value iteration history trace: 7.601364E-002,7.601364E-002,7.601364E-002,7.601364E-002,7.601364E-002,7.601364E-002,7.601364E-002,7.601364E-002,7.601364E-002,7.601364E-002,
   **   ~~~   ** Supply-to-demand interface deck 1 mass flow rate check value iteration history trace: 7.601364E-002,7.601364E-002,7.601364E-002,7.601364E-002,7.601364E-002,7.601364E-002,7.601364E-002,7.601364E-002,7.601364E-002,7.601364E-002,
   **   ~~~   ** Air System Named = CENTRAL SYSTEM did not converge for energy
   **   ~~~   ** Check values should be zero. Most Recent values listed first.
   **   ~~~   ** Demand-to-Supply interface energy check value iteration history trace: 1498.770274,1498.770274,1498.770274,1498.770274,1498.770274,1498.770274,1498.770273,1498.770273,1498.770273,1498.770273,
   **   ~~~   ** Supply-to-demand interface deck 1 energy check value iteration history trace: 2573.219872,2573.219872,2573.219872,2573.219872,2573.219872,2573.219872,2573.219872,2573.219872,2573.219872,2573.219872,
   ************* Simulation Error Summary *************
   ** Warning ** The following Report Variables were requested but not generated -- check.rdd file
   **   ~~~   ** Either the IDF did not contain these elements, the variable name is misspelled,
   **   ~~~   ** or the requested variable is an advanced output which requires Output : Diagnostics, DisplayAdvancedReportVariables;
   ************* Key=*, VarName=BASEBOARD TOTAL HEATING ENERGY, Frequency=
   ************* Key=*, VarName=WATER HEATER NATURALGAS ENERGY, Frequency=
   ************* Key=*, VarName=COOLING COIL TOTAL HEATING ENERGY, Frequency=
   ************* There are 34 unused schedules in input.
   ************* There are 388 unused week schedules in input.
   ************* There are 396 unused day schedules in input.
   ************* Use Output:Diagnostics,DisplayUnusedSchedules; to see them.
   *************
   ************* ===== Recurring Error Summary =====
   ************* The following recurring error messages occurred.
   *************
   *************  ** Warning ** "TOTAL HOT WATER LOAD" - Target water temperature should be less than or equal to the hot water temperature error continues...
   *************  **   ~~~   **   This error occurred 118405 total times;
   *************  **   ~~~   **   during Warmup 0 times;
   *************  **   ~~~   **   during Sizing 0 times.
   *************  **   ~~~   **   Max=10.273494  Min=5.870955E-004
   *************
   *************  ** Warning ** SimHVAC: Exceeding Maximum iterations for all HVAC loops, during ANNUAL continues
   *************  **   ~~~   **   This error occurred 1 total times;
   *************  **   ~~~   **   during Warmup 0 times;
   *************  **   ~~~   **   during Sizing 0 times.
   *************
   *************
   ************* ===== Final Error Summary =====
   ************* The following error categories occurred.  Consider correcting or noting.
   ************* Nominally Unused Constructions
   ************* ..The nominally unused constructions warning is provided to alert you to potential conditions that can cause
   ************* ..extra time during simulation. Each construction is calculated by the algorithm indicated in the HeatBalanceAlgorithm
   ************* ..object. You may remove the constructions indicated (when you use the DisplayExtraWarnings option).
   *************
   ************* EnergyPlus Warmup Error Summary. During Warmup: 1 Warning; 0 Severe Errors.
   ************* EnergyPlus Sizing Error Summary. During Sizing: 4 Warning; 0 Severe Errors.
   ************* EnergyPlus Completed Successfully-- 118437 Warning; 0 Severe Errors; Elapsed Time=00hr 05min 36.46sec
