Program Version,EnergyPlus, Version 22.2.0-c249759bad, YMD=2023.09.01 19:24,
   ************* Beginning Zone Sizing Calculations
   ** Warning ** ProcessScheduleInput: Schedule:Constant="ALWAYS ON DISCRETE", Schedule Type Limits Name="ONOFF" not found -- will not be validated
   ** Warning ** Foundation:Kiva="KIVA FOUNDATION", no Interior Horizontal Insulation Material Name defined
   **   ~~~   ** Interior Horizontal Insulation Depth will not be used.
   ** Warning ** CheckUsedConstructions: There are 15 nominally unused constructions in input.
   **   ~~~   ** Each Unused construction is shown.
   ************* Construction=INTERIOR FLOOR
   ************* Construction=INTERIOR WINDOW
   ************* Construction=EXTERIOR DOOR
   ************* Construction=INTERIOR DOOR
   ************* Construction=GABLE CONSTRUCTION
   ************* Construction=CRAWL_FLOOR
   ************* Construction=INSULATED PIPE
   ************* Construction=PLAIN PIPE
   ************* Construction=TDD PIPE
   ************* Construction=TDD DOME
   ************* Construction=TDD DIFFUSER
   ************* Construction=CRAWL WALL
   ************* Construction=CEILING-FLOOR-LAYER
   ************* Construction=SLAB CONSTRUCTION W FULL R10 INSULATION
   ************* Construction=SLAB CONSTRUCTION W FULL R5 INSULATION
   ** Warning ** GetDXCoils: Coil:Heating:DX:SingleSpeed="DX_HEATING_COIL" curve values
   **   ~~~   ** ... Defrost Energy Input Ratio Function of Temperature Curve Name = DEFROSTEIR output is not equal to 1.0 (+ or - 10%) at rated conditions.
   **   ~~~   ** ... Curve output at rated conditions = 0.152
   ************* Beginning System Sizing Calculations
   ************* Beginning Plant Sizing Calculations
   ** Warning ** SizeDXCoil Coil:Cooling:DX:SingleSpeed DX_COOLING_COIL
   **   ~~~   ** ...Gross Rated Total Cooling Capacity [W] will be limited by the maximum rated volume flow per rated total capacity ratio.
   **   ~~~   ** ...DX coil volume flow rate ( m3/s ) = 0.471977
   **   ~~~   ** ...Requested capacity ( W ) = 7366.781
   **   ~~~   ** ...Requested flow/capacity ratio ( m3/s/W ) = 6.406E-005
   **   ~~~   ** ...Maximum flow/capacity ratio ( m3/s/W ) = 6.041E-005
   **   ~~~   ** ...Adjusted capacity ( W ) = 7812.910
   ** Warning ** Coil:WaterHeating:AirToWaterHeatPump:Wrapped "HEAT PUMP WATER HEATER EVAPORATOR": Rated air volume flow rate per watt of rated total water heating capacity is out of range
   **   ~~~   ** Min Rated Vol Flow Per Watt=[4.027E-005], Rated Vol Flow Per Watt=[1.510E-004], Max Rated Vol Flow Per Watt=[8.056E-005]. See Input-Output Reference Manual for valid range.
   ************* SizeFan: : Potential issue with equipment sizing for Fan:OnOff HEAT PUMP WATER HEATER FAN
   **   ~~~   ** User-Specified Maximum Flow Rate [m3/s] = 0.22653
   **   ~~~   ** differs from Design Size Maximum Flow Rate [m3/s] = 7.55250E-002
   **   ~~~   ** This may, or may not, indicate mismatched component sizes.
   **   ~~~   ** Verify that the value entered is intended and is consistent with other components.
   ** Warning ** Water heater = WATER HEATER TANK:  Recovery Efficiency and Energy Factor could not be calculated during the test for standard ratings
   **   ~~~   ** Setpoint was never recovered and/or heater never turned on
   ** Warning ** Check input. Pump nominal power or motor efficiency is set to 0, for pump=MAINS PRESSURE
   ** Warning ** Output:Meter: invalid Key Name="ELECTRIC_RANGE:INTERIOREQUIPMENT:ELECTRICITY" - not found.
   ** Warning ** Output:Meter: invalid Key Name="ELECTRIC_DRYER:INTERIOREQUIPMENT:ELECTRICITY" - not found.
   ** Warning ** Output:Meter: invalid Key Name="HEATRECOVERY:ELECTRICITY" - not found.
   ** Warning ** Output:Meter: invalid Key Name="HEATING:NATURALGAS" - not found.
   ** Warning ** Output:Meter: invalid Key Name="WATERSYSTEMS:NATURALGAS" - not found.
   ** Warning ** Output:Meter: invalid Key Name="PROPANE:FACILITY" - not found.
   ** Warning ** Output:Meter: invalid Key Name="HEATING:PROPANE" - not found.
   ************* Testing Individual Branch Integrity
   ************* All Branches passed integrity testing
   ************* Testing Individual Supply Air Path Integrity
   ************* All Supply Air Paths passed integrity testing
   ************* Testing Individual Return Air Path Integrity
   ************* All Return Air Paths passed integrity testing
   ************* No node connection errors were found.
   ************* Beginning Simulation
   ** Warning ** AirflowNetwork::Solver::validate_distribution: Heat pump water heater is simulated along with an AirflowNetwork but is not included in the AirflowNetwork.
   ** Warning ** CalcEquipmentFlowRates: "TOTAL HOT WATER LOAD" - Target water temperature is greater than the hot water temperature by (0.71 C)
   **   ~~~   **  Environment=EXTREME_WINTER, at Simulation time=02/15 06:00 - 06:15
   **   ~~~   ** ...target water temperature     = 53.33 C
   **   ~~~   ** ...hot water temperature        = 52.62 C
   **   ~~~   ** ...Target water temperature should be less than or equal to the hot water temperature. Verify temperature setpoints and schedules.
   ** Warning ** SimHVAC: Maximum iterations (20) exceeded for all HVAC loops, at EXTREME_WINTER, 02/18 07:00 - 07:15
   **   ~~~   ** The solution for one or more of the Air Loop HVAC systems did not appear to converge
   **   ~~~   ** Air System Named = CENTRAL SYSTEM did not converge for mass flow rate
   **   ~~~   ** Check values should be zero. Most Recent values listed first.
   **   ~~~   ** Demand-to-Supply interface mass flow rate check value iteration history trace: 7.253736E-002,7.253736E-002,7.253736E-002,7.253736E-002,7.253736E-002,7.253736E-002,7.253736E-002,7.253736E-002,7.253736E-002,7.253736E-002,
   **   ~~~   ** Supply-to-demand interface deck 1 mass flow rate check value iteration history trace: 7.253736E-002,7.253736E-002,7.253736E-002,7.253736E-002,7.253736E-002,7.253736E-002,7.253736E-002,7.253736E-002,7.253736E-002,7.253736E-002,
   **   ~~~   ** Air System Named = CENTRAL SYSTEM did not converge for energy
   **   ~~~   ** Check values should be zero. Most Recent values listed first.
   **   ~~~   ** Demand-to-Supply interface energy check value iteration history trace: 1436.920408,1436.920408,1436.920408,1436.920408,1436.920408,1436.920407,1436.920407,1436.920407,1436.920407,1436.920407,
   **   ~~~   ** Supply-to-demand interface deck 1 energy check value iteration history trace: 2432.113707,2432.113707,2432.113707,2432.113706,2432.113706,2432.113706,2432.113706,2432.113706,2432.113706,2432.113706,
   ** Warning ** SimHVAC: Maximum iterations (20) exceeded for all HVAC loops, at EXTREME_WINTER, 02/20 10:04 - 10:06
   **   ~~~   ** The solution for one or more of the Air Loop HVAC systems did not appear to converge
   **   ~~~   ** Air System Named = CENTRAL SYSTEM did not converge for mass flow rate
   **   ~~~   ** Check values should be zero. Most Recent values listed first.
   **   ~~~   ** Demand-to-Supply interface mass flow rate check value iteration history trace: 5.491906E-002,5.491906E-002,5.491906E-002,5.491906E-002,5.491906E-002,5.491906E-002,5.491906E-002,5.491906E-002,5.491906E-002,5.491906E-002,
   **   ~~~   ** Supply-to-demand interface deck 1 mass flow rate check value iteration history trace: 5.491906E-002,5.491906E-002,5.491906E-002,5.491906E-002,5.491906E-002,5.491906E-002,5.491906E-002,5.491906E-002,5.491906E-002,5.491906E-002,
   **   ~~~   ** Air System Named = CENTRAL SYSTEM did not converge for energy
   **   ~~~   ** Check values should be zero. Most Recent values listed first.
   **   ~~~   ** Demand-to-Supply interface energy check value iteration history trace: 1084.565608,1084.565607,1084.565607,1084.565607,1084.565607,1084.565607,1084.565607,1084.565607,1084.565607,1084.565607,
   **   ~~~   ** Supply-to-demand interface deck 1 energy check value iteration history trace: 1951.397996,1951.397996,1951.397996,1951.397996,1951.397996,1951.397996,1951.397996,1951.397996,1951.397996,1951.397996,
   ** Warning ** SimHVAC: Maximum iterations (20) exceeded for all HVAC loops, at ANNUAL, 01/28 05:38 - 05:45
   **   ~~~   ** The solution for one or more of the Air Loop HVAC systems did not appear to converge
   **   ~~~   ** Air System Named = CENTRAL SYSTEM did not converge for mass flow rate
   **   ~~~   ** Check values should be zero. Most Recent values listed first.
   **   ~~~   ** Demand-to-Supply interface mass flow rate check value iteration history trace: 2.323019E-002,2.323019E-002,2.323019E-002,2.323019E-002,2.323019E-002,2.323019E-002,2.323019E-002,2.323019E-002,2.323019E-002,2.323019E-002,
   **   ~~~   ** Supply-to-demand interface deck 1 mass flow rate check value iteration history trace: 2.323019E-002,2.323019E-002,2.323019E-002,2.323019E-002,2.323019E-002,2.323019E-002,2.323019E-002,2.323019E-002,2.323019E-002,2.323019E-002,
   **   ~~~   ** Air System Named = CENTRAL SYSTEM did not converge for energy
   **   ~~~   ** Check values should be zero. Most Recent values listed first.
   **   ~~~   ** Demand-to-Supply interface energy check value iteration history trace: 458.042201,458.042201,458.042201,458.042201,458.042201,458.042201,458.042201,458.042201,458.042201,458.042201,
   **   ~~~   ** Supply-to-demand interface deck 1 energy check value iteration history trace: 784.908704,784.908704,784.908704,784.908704,784.908704,784.908704,784.908704,784.908703,784.908703,784.908703,
   ** Warning ** SimHVAC: Maximum iterations (20) exceeded for all HVAC loops, at ANNUAL, 02/01 07:30 - 07:45
   **   ~~~   ** The solution for one or more of the Air Loop HVAC systems did not appear to converge
   **   ~~~   ** Air System Named = CENTRAL SYSTEM did not converge for mass flow rate
   **   ~~~   ** Check values should be zero. Most Recent values listed first.
   **   ~~~   ** Demand-to-Supply interface mass flow rate check value iteration history trace: 6.666920E-002,6.666920E-002,6.666920E-002,6.666920E-002,6.666920E-002,6.666920E-002,6.666920E-002,6.666920E-002,6.666920E-002,6.666920E-002,
   **   ~~~   ** Supply-to-demand interface deck 1 mass flow rate check value iteration history trace: 6.666920E-002,6.666920E-002,6.666920E-002,6.666920E-002,6.666920E-002,6.666920E-002,6.666920E-002,6.666920E-002,6.666920E-002,6.666920E-002,
   **   ~~~   ** Air System Named = CENTRAL SYSTEM did not converge for energy
   **   ~~~   ** Check values should be zero. Most Recent values listed first.
   **   ~~~   ** Demand-to-Supply interface energy check value iteration history trace: 1321.062548,1321.062548,1321.062548,1321.062548,1321.062548,1321.062548,1321.062548,1321.062548,1321.062548,1321.062548,
   **   ~~~   ** Supply-to-demand interface deck 1 energy check value iteration history trace: 2244.728593,2244.728593,2244.728593,2244.728593,2244.728593,2244.728592,2244.728592,2244.728592,2244.728592,2244.728592,
   ** Warning ** SimHVAC: Maximum iterations (20) exceeded for all HVAC loops, at ANNUAL, 02/02 08:00 - 08:15
   **   ~~~   ** The solution for one or more of the Air Loop HVAC systems did not appear to converge
   **   ~~~   ** Air System Named = CENTRAL SYSTEM did not converge for mass flow rate
   **   ~~~   ** Check values should be zero. Most Recent values listed first.
   **   ~~~   ** Demand-to-Supply interface mass flow rate check value iteration history trace: 6.027959E-002,6.027959E-002,6.027959E-002,6.027959E-002,6.027959E-002,6.027959E-002,6.027959E-002,6.027959E-002,6.027959E-002,6.027959E-002,
   **   ~~~   ** Supply-to-demand interface deck 1 mass flow rate check value iteration history trace: 6.027959E-002,6.027959E-002,6.027959E-002,6.027959E-002,6.027959E-002,6.027959E-002,6.027959E-002,6.027959E-002,6.027959E-002,6.027959E-002,
   **   ~~~   ** Air System Named = CENTRAL SYSTEM did not converge for energy
   **   ~~~   ** Check values should be zero. Most Recent values listed first.
   **   ~~~   ** Demand-to-Supply interface energy check value iteration history trace: 1171.548477,1171.548477,1171.548477,1171.548477,1171.548477,1171.548477,1171.548477,1171.548477,1171.548477,1171.548477,
   **   ~~~   ** Supply-to-demand interface deck 1 energy check value iteration history trace: 2039.596729,2039.596729,2039.596729,2039.596729,2039.596729,2039.596729,2039.596729,2039.596729,2039.596728,2039.596728,
   ** Warning ** SimHVAC: Maximum iterations (20) exceeded for all HVAC loops, at ANNUAL, 02/14 07:30 - 07:45
   **   ~~~   ** The solution for one or more of the Air Loop HVAC systems did not appear to converge
   **   ~~~   ** Air System Named = CENTRAL SYSTEM did not converge for mass flow rate
   **   ~~~   ** Check values should be zero. Most Recent values listed first.
   **   ~~~   ** Demand-to-Supply interface mass flow rate check value iteration history trace: 6.572233E-002,6.572233E-002,6.572233E-002,6.572233E-002,6.572233E-002,6.572233E-002,6.572233E-002,6.572233E-002,6.572233E-002,6.572233E-002,
   **   ~~~   ** Supply-to-demand interface deck 1 mass flow rate check value iteration history trace: 6.572233E-002,6.572233E-002,6.572233E-002,6.572233E-002,6.572233E-002,6.572233E-002,6.572233E-002,6.572233E-002,6.572233E-002,6.572233E-002,
   **   ~~~   ** Air System Named = CENTRAL SYSTEM did not converge for energy
   **   ~~~   ** Check values should be zero. Most Recent values listed first.
   **   ~~~   ** Demand-to-Supply interface energy check value iteration history trace: 1302.239987,1302.239987,1302.239987,1302.239987,1302.239987,1302.239987,1302.239987,1302.239987,1302.239987,1302.239987,
   **   ~~~   ** Supply-to-demand interface deck 1 energy check value iteration history trace: 2200.743128,2200.743128,2200.743128,2200.743128,2200.743128,2200.743128,2200.743128,2200.743128,2200.743128,2200.743128,
   ** Warning ** SimHVAC: Maximum iterations (20) exceeded for all HVAC loops, at ANNUAL, 03/03 05:00 - 05:15
   **   ~~~   ** The solution for one or more of the Air Loop HVAC systems did not appear to converge
   **   ~~~   ** Air System Named = CENTRAL SYSTEM did not converge for mass flow rate
   **   ~~~   ** Check values should be zero. Most Recent values listed first.
   **   ~~~   ** Demand-to-Supply interface mass flow rate check value iteration history trace: 3.079617E-002,3.079617E-002,3.079617E-002,3.079617E-002,3.079617E-002,3.079617E-002,3.079617E-002,3.079617E-002,3.079617E-002,3.079617E-002,
   **   ~~~   ** Supply-to-demand interface deck 1 mass flow rate check value iteration history trace: 3.079617E-002,3.079617E-002,3.079617E-002,3.079617E-002,3.079617E-002,3.079617E-002,3.079617E-002,3.079617E-002,3.079617E-002,3.079617E-002,
   **   ~~~   ** Air System Named = CENTRAL SYSTEM did not converge for energy
   **   ~~~   ** Check values should be zero. Most Recent values listed first.
   **   ~~~   ** Demand-to-Supply interface energy check value iteration history trace: 601.829056,601.829056,601.829056,601.829055,601.829055,601.829055,601.829055,601.829055,601.829055,601.829055,
   **   ~~~   ** Supply-to-demand interface deck 1 energy check value iteration history trace: 1031.123743,1031.123743,1031.123743,1031.123743,1031.123743,1031.123743,1031.123743,1031.123743,1031.123743,1031.123743,
   ** Warning ** SimHVAC: Maximum iterations (20) exceeded for all HVAC loops, at ANNUAL, 03/03 07:03 - 07:06
   **   ~~~   ** The solution for one or more of the Air Loop HVAC systems did not appear to converge
   **   ~~~   ** Air System Named = CENTRAL SYSTEM did not converge for mass flow rate
   **   ~~~   ** Check values should be zero. Most Recent values listed first.
   **   ~~~   ** Demand-to-Supply interface mass flow rate check value iteration history trace: 5.502314E-002,5.502314E-002,5.502314E-002,5.502314E-002,5.502314E-002,5.502314E-002,5.502314E-002,5.502314E-002,5.502314E-002,5.502314E-002,
   **   ~~~   ** Supply-to-demand interface deck 1 mass flow rate check value iteration history trace: 5.502314E-002,5.502314E-002,5.502314E-002,5.502314E-002,5.502314E-002,5.502314E-002,5.502314E-002,5.502314E-002,5.502314E-002,5.502314E-002,
   **   ~~~   ** Air System Named = CENTRAL SYSTEM did not converge for energy
   **   ~~~   ** Check values should be zero. Most Recent values listed first.
   **   ~~~   ** Demand-to-Supply interface energy check value iteration history trace: 1085.952925,1085.952925,1085.952925,1085.952925,1085.952925,1085.952925,1085.952925,1085.952925,1085.952925,1085.952924,
   **   ~~~   ** Supply-to-demand interface deck 1 energy check value iteration history trace: 2010.996048,2010.996048,2010.996048,2010.996048,2010.996048,2010.996048,2010.996048,2010.996048,2010.996048,2010.996048,
   ** Warning ** SimHVAC: Maximum iterations (20) exceeded for all HVAC loops, at ANNUAL, 03/08 05:30 - 05:45
   **   ~~~   ** The solution for one or more of the Air Loop HVAC systems did not appear to converge
   **   ~~~   ** Air System Named = CENTRAL SYSTEM did not converge for mass flow rate
   **   ~~~   ** Check values should be zero. Most Recent values listed first.
   **   ~~~   ** Demand-to-Supply interface mass flow rate check value iteration history trace: 3.005299E-002,3.005299E-002,3.005299E-002,3.005299E-002,3.005299E-002,3.005299E-002,3.005299E-002,3.005299E-002,3.005299E-002,3.005299E-002,
   **   ~~~   ** Supply-to-demand interface deck 1 mass flow rate check value iteration history trace: 3.005299E-002,3.005299E-002,3.005299E-002,3.005299E-002,3.005299E-002,3.005299E-002,3.005299E-002,3.005299E-002,3.005299E-002,3.005299E-002,
   **   ~~~   ** Air System Named = CENTRAL SYSTEM did not converge for energy
   **   ~~~   ** Check values should be zero. Most Recent values listed first.
   **   ~~~   ** Demand-to-Supply interface energy check value iteration history trace: 589.702851,589.702851,589.702851,589.702851,589.702851,589.702851,589.702851,589.702851,589.702851,589.702851,
   **   ~~~   ** Supply-to-demand interface deck 1 energy check value iteration history trace: 1008.804261,1008.804261,1008.804261,1008.804261,1008.804261,1008.804260,1008.804260,1008.804260,1008.804260,1008.804260,
   ** Warning ** SimHVAC: Maximum iterations (20) exceeded for all HVAC loops, at ANNUAL, 04/07 10:15 - 10:30
   **   ~~~   ** The solution for one or more of the Air Loop HVAC systems did not appear to converge
   **   ~~~   ** Air System Named = CENTRAL SYSTEM did not converge for mass flow rate
   **   ~~~   ** Check values should be zero. Most Recent values listed first.
   **   ~~~   ** Demand-to-Supply interface mass flow rate check value iteration history trace: 0.203220,0.203220,0.203220,0.203220,0.203220,0.203220,0.203220,0.203220,0.203220,0.203220,
   **   ~~~   ** Supply-to-demand interface deck 1 mass flow rate check value iteration history trace: 0.203220,0.203220,0.203220,0.203220,0.203220,0.203220,0.203220,0.203220,0.203220,0.203220,
   **   ~~~   ** Air System Named = CENTRAL SYSTEM did not converge for energy
   **   ~~~   ** Check values should be zero. Most Recent values listed first.
   **   ~~~   ** Demand-to-Supply interface energy check value iteration history trace: 4963.832160,4963.832160,4963.832161,4963.832161,4963.832162,4963.832162,4963.832162,4963.832163,4963.832163,4963.832163,
   **   ~~~   ** Supply-to-demand interface deck 1 energy check value iteration history trace: 2494.094875,2494.094875,2494.094875,2494.094875,2494.094875,2494.094875,2494.094876,2494.094876,2494.094876,2494.094876,
   ** Warning ** SimHVAC: Maximum iterations (20) exceeded for all HVAC loops, at ANNUAL, 04/08 20:15 - 20:30
   **   ~~~   ** The solution for one or more of the Air Loop HVAC systems did not appear to converge
   **   ~~~   ** Air System Named = CENTRAL SYSTEM did not converge for mass flow rate
   **   ~~~   ** Check values should be zero. Most Recent values listed first.
   **   ~~~   ** Demand-to-Supply interface mass flow rate check value iteration history trace: 9.013733E-002,9.013733E-002,9.013733E-002,9.013733E-002,9.013733E-002,9.013733E-002,9.013733E-002,9.013733E-002,9.013733E-002,9.013733E-002,
   **   ~~~   ** Supply-to-demand interface deck 1 mass flow rate check value iteration history trace: 9.013733E-002,9.013733E-002,9.013733E-002,9.013733E-002,9.013733E-002,9.013733E-002,9.013733E-002,9.013733E-002,9.013733E-002,9.013733E-002,
   **   ~~~   ** Air System Named = CENTRAL SYSTEM did not converge for energy
   **   ~~~   ** Check values should be zero. Most Recent values listed first.
   **   ~~~   ** Demand-to-Supply interface energy check value iteration history trace: 2158.657925,2158.657925,2158.657925,2158.657925,2158.657925,2158.657925,2158.657926,2158.657926,2158.657926,2158.657926,
   **   ~~~   ** Supply-to-demand interface deck 1 energy check value iteration history trace: 870.424573,870.424573,870.424573,870.424573,870.424573,870.424573,870.424574,870.424574,870.424574,870.424574,
   ** Warning ** SimHVAC: Maximum iterations (20) exceeded for all HVAC loops, at ANNUAL, 04/10 07:08 - 07:11
   **   ~~~   ** The solution for one or more of the Air Loop HVAC systems did not appear to converge
   **   ~~~   ** Air System Named = CENTRAL SYSTEM did not converge for mass flow rate
   **   ~~~   ** Check values should be zero. Most Recent values listed first.
   **   ~~~   ** Demand-to-Supply interface mass flow rate check value iteration history trace: 6.550299E-002,6.550299E-002,6.550299E-002,6.550299E-002,6.550299E-002,6.550299E-002,6.550299E-002,6.550299E-002,6.550299E-002,6.550299E-002,
   **   ~~~   ** Supply-to-demand interface deck 1 mass flow rate check value iteration history trace: 6.550299E-002,6.550299E-002,6.550299E-002,6.550299E-002,6.550299E-002,6.550299E-002,6.550299E-002,6.550299E-002,6.550299E-002,6.550299E-002,
   **   ~~~   ** Air System Named = CENTRAL SYSTEM did not converge for energy
   **   ~~~   ** Check values should be zero. Most Recent values listed first.
   **   ~~~   ** Demand-to-Supply interface energy check value iteration history trace: 1289.325049,1289.325049,1289.325048,1289.325048,1289.325048,1289.325048,1289.325048,1289.325048,1289.325048,1289.325048,
   **   ~~~   ** Supply-to-demand interface deck 1 energy check value iteration history trace: 2235.889333,2235.889333,2235.889333,2235.889333,2235.889333,2235.889333,2235.889333,2235.889333,2235.889333,2235.889332,
   ** Warning ** SimHVAC: Maximum iterations (20) exceeded for all HVAC loops, at ANNUAL, 12/03 10:53 - 10:55
   **   ~~~   ** The solution for one or more of the Air Loop HVAC systems did not appear to converge
   **   ~~~   ** Air System Named = CENTRAL SYSTEM did not converge for mass flow rate
   **   ~~~   ** Check values should be zero. Most Recent values listed first.
   **   ~~~   ** Demand-to-Supply interface mass flow rate check value iteration history trace: 0.232340,0.232340,0.232340,0.232340,0.232340,0.232340,0.232340,0.232340,0.232340,0.232340,
   **   ~~~   ** Supply-to-demand interface deck 1 mass flow rate check value iteration history trace: 0.232340,0.232340,0.232340,0.232340,0.232340,0.232340,0.232340,0.232340,0.232340,0.232340,
   **   ~~~   ** Air System Named = CENTRAL SYSTEM did not converge for energy
   **   ~~~   ** Check values should be zero. Most Recent values listed first.
   **   ~~~   ** Demand-to-Supply interface energy check value iteration history trace: 5525.984344,5525.984344,5525.984345,5525.984345,5525.984346,5525.984346,5525.984347,5525.984347,5525.984348,5525.984348,
   **   ~~~   ** Supply-to-demand interface deck 1 energy check value iteration history trace: 2648.708789,2648.708789,2648.708790,2648.708790,2648.708790,2648.708790,2648.708790,2648.708791,2648.708791,2648.708791,
   ** Warning ** SimHVAC: Maximum iterations (20) exceeded for all HVAC loops, at ANNUAL, 12/05 09:25 - 09:27
   **   ~~~   ** The solution for one or more of the Air Loop HVAC systems did not appear to converge
   **   ~~~   ** Air System Named = CENTRAL SYSTEM did not converge for mass flow rate
   **   ~~~   ** Check values should be zero. Most Recent values listed first.
   **   ~~~   ** Demand-to-Supply interface mass flow rate check value iteration history trace: 5.939179E-002,5.939179E-002,5.939179E-002,5.939179E-002,5.939179E-002,5.939179E-002,5.939179E-002,5.939179E-002,5.939179E-002,5.939179E-002,
   **   ~~~   ** Supply-to-demand interface deck 1 mass flow rate check value iteration history trace: 5.939179E-002,5.939179E-002,5.939179E-002,5.939179E-002,5.939179E-002,5.939179E-002,5.939179E-002,5.939179E-002,5.939179E-002,5.939179E-002,
   **   ~~~   ** Air System Named = CENTRAL SYSTEM did not converge for energy
   **   ~~~   ** Check values should be zero. Most Recent values listed first.
   **   ~~~   ** Demand-to-Supply interface energy check value iteration history trace: 1174.206888,1174.206888,1174.206888,1174.206888,1174.206888,1174.206888,1174.206888,1174.206888,1174.206888,1174.206888,
   **   ~~~   ** Supply-to-demand interface deck 1 energy check value iteration history trace: 2059.316397,2059.316397,2059.316397,2059.316397,2059.316397,2059.316397,2059.316396,2059.316396,2059.316396,2059.316396,
   ************* Simulation Error Summary *************
   ** Warning ** The following Report Variables were requested but not generated -- check.rdd file
   **   ~~~   ** Either the IDF did not contain these elements, the variable name is misspelled,
   **   ~~~   ** or the requested variable is an advanced output which requires Output : Diagnostics, DisplayAdvancedReportVariables;
   ************* Key=*, VarName=BASEBOARD TOTAL HEATING ENERGY, Frequency=
   ************* Key=*, VarName=WATER HEATER NATURALGAS ENERGY, Frequency=
   ************* Key=*, VarName=COOLING COIL TOTAL HEATING ENERGY, Frequency=
   ************* There are 34 unused schedules in input.
   ************* There are 388 unused week schedules in input.
   ************* There are 396 unused day schedules in input.
   ************* Use Output:Diagnostics,DisplayUnusedSchedules; to see them.
   *************
   ************* ===== Recurring Error Summary =====
   ************* The following recurring error messages occurred.
   *************
   *************  ** Warning ** "TOTAL HOT WATER LOAD" - Target water temperature should be less than or equal to the hot water temperature error continues...
   *************  **   ~~~   **   This error occurred 182825 total times;
   *************  **   ~~~   **   during Warmup 0 times;
   *************  **   ~~~   **   during Sizing 0 times.
   *************  **   ~~~   **   Max=8.521874  Min=4.051644E-004
   *************
   *************  ** Warning ** SimHVAC: Exceeding Maximum iterations for all HVAC loops, during ANNUAL continues
   *************  **   ~~~   **   This error occurred 4 total times;
   *************  **   ~~~   **   during Warmup 0 times;
   *************  **   ~~~   **   during Sizing 0 times.
   *************
   *************
   ************* ===== Final Error Summary =====
   ************* The following error categories occurred.  Consider correcting or noting.
   ************* Nominally Unused Constructions
   ************* ..The nominally unused constructions warning is provided to alert you to potential conditions that can cause
   ************* ..extra time during simulation. Each construction is calculated by the algorithm indicated in the HeatBalanceAlgorithm
   ************* ..object. You may remove the constructions indicated (when you use the DisplayExtraWarnings option).
   *************
   ************* EnergyPlus Warmup Error Summary. During Warmup: 1 Warning; 0 Severe Errors.
   ************* EnergyPlus Sizing Error Summary. During Sizing: 4 Warning; 0 Severe Errors.
   ************* EnergyPlus Completed Successfully-- 182861 Warning; 0 Severe Errors; Elapsed Time=00hr 02min  2.79sec
