Program Version,EnergyPlus, Version 22.2.0-c249759bad, YMD=2023.09.01 19:10,
   ************* Beginning Zone Sizing Calculations
   ** Warning ** ProcessScheduleInput: Schedule:Constant="ALWAYS ON DISCRETE", Schedule Type Limits Name="ONOFF" not found -- will not be validated
   ** Warning ** Foundation:Kiva="KIVA FOUNDATION", no Interior Horizontal Insulation Material Name defined
   **   ~~~   ** Interior Horizontal Insulation Depth will not be used.
   ** Warning ** CheckUsedConstructions: There are 15 nominally unused constructions in input.
   **   ~~~   ** Each Unused construction is shown.
   ************* Construction=INTERIOR FLOOR
   ************* Construction=INTERIOR WINDOW
   ************* Construction=EXTERIOR DOOR
   ************* Construction=INTERIOR DOOR
   ************* Construction=GABLE CONSTRUCTION
   ************* Construction=CRAWL_FLOOR
   ************* Construction=INSULATED PIPE
   ************* Construction=PLAIN PIPE
   ************* Construction=TDD PIPE
   ************* Construction=TDD DOME
   ************* Construction=TDD DIFFUSER
   ************* Construction=CRAWL WALL
   ************* Construction=CEILING-FLOOR-LAYER
   ************* Construction=SLAB CONSTRUCTION W FULL R10 INSULATION
   ************* Construction=SLAB CONSTRUCTION W FULL R5 INSULATION
   ** Warning ** GetDXCoils: Coil:Heating:DX:SingleSpeed="DX_HEATING_COIL" curve values
   **   ~~~   ** ... Defrost Energy Input Ratio Function of Temperature Curve Name = DEFROSTEIR output is not equal to 1.0 (+ or - 10%) at rated conditions.
   **   ~~~   ** ... Curve output at rated conditions = 0.152
   ************* Beginning System Sizing Calculations
   ************* Beginning Plant Sizing Calculations
   ** Warning ** Coil:WaterHeating:AirToWaterHeatPump:Wrapped "HEAT PUMP WATER HEATER EVAPORATOR": Rated air volume flow rate per watt of rated total water heating capacity is out of range
   **   ~~~   ** Min Rated Vol Flow Per Watt=[4.027E-005], Rated Vol Flow Per Watt=[1.510E-004], Max Rated Vol Flow Per Watt=[8.056E-005]. See Input-Output Reference Manual for valid range.
   ************* SizeFan: : Potential issue with equipment sizing for Fan:OnOff HEAT PUMP WATER HEATER FAN
   **   ~~~   ** User-Specified Maximum Flow Rate [m3/s] = 0.22653
   **   ~~~   ** differs from Design Size Maximum Flow Rate [m3/s] = 7.55250E-002
   **   ~~~   ** This may, or may not, indicate mismatched component sizes.
   **   ~~~   ** Verify that the value entered is intended and is consistent with other components.
   ** Warning ** Water heater = WATER HEATER TANK:  Recovery Efficiency and Energy Factor could not be calculated during the test for standard ratings
   **   ~~~   ** Setpoint was never recovered and/or heater never turned on
   ** Warning ** Check input. Pump nominal power or motor efficiency is set to 0, for pump=MAINS PRESSURE
   ** Warning ** AirflowNetwork::Solver::validate_distribution: Heat pump water heater is simulated along with an AirflowNetwork but is not included in the AirflowNetwork.
   ** Warning ** Output:Meter: invalid Key Name="ELECTRIC_RANGE:INTERIOREQUIPMENT:ELECTRICITY" - not found.
   ** Warning ** Output:Meter: invalid Key Name="ELECTRIC_DRYER:INTERIOREQUIPMENT:ELECTRICITY" - not found.
   ** Warning ** Output:Meter: invalid Key Name="HEATRECOVERY:ELECTRICITY" - not found.
   ** Warning ** Output:Meter: invalid Key Name="HEATING:NATURALGAS" - not found.
   ** Warning ** Output:Meter: invalid Key Name="WATERSYSTEMS:NATURALGAS" - not found.
   ** Warning ** Output:Meter: invalid Key Name="PROPANE:FACILITY" - not found.
   ** Warning ** Output:Meter: invalid Key Name="HEATING:PROPANE" - not found.
   ************* Testing Individual Branch Integrity
   ************* All Branches passed integrity testing
   ************* Testing Individual Supply Air Path Integrity
   ************* All Supply Air Paths passed integrity testing
   ************* Testing Individual Return Air Path Integrity
   ************* All Return Air Paths passed integrity testing
   ************* No node connection errors were found.
   ************* Beginning Simulation
   ** Warning ** CalcEquipmentFlowRates: "TOTAL HOT WATER LOAD" - Target water temperature is greater than the hot water temperature by (9.64E-002 C)
   **   ~~~   **  Environment=EXTREME_WINTER, at Simulation time=01/20 06:45 - 07:00
   **   ~~~   ** ...target water temperature     = 53.33 C
   **   ~~~   ** ...hot water temperature        = 53.24 C
   **   ~~~   ** ...Target water temperature should be less than or equal to the hot water temperature. Verify temperature setpoints and schedules.
   ** Warning ** SimHVAC: Maximum iterations (20) exceeded for all HVAC loops, at ANNUAL, 02/16 11:00 - 11:15
   **   ~~~   ** The solution for one or more of the Air Loop HVAC systems did not appear to converge
   **   ~~~   ** Air System Named = CENTRAL SYSTEM did not converge for mass flow rate
   **   ~~~   ** Check values should be zero. Most Recent values listed first.
   **   ~~~   ** Demand-to-Supply interface mass flow rate check value iteration history trace: 7.055188E-002,7.055188E-002,7.055188E-002,7.055188E-002,7.055188E-002,7.055188E-002,7.055188E-002,7.055188E-002,7.055188E-002,7.055188E-002,
   **   ~~~   ** Supply-to-demand interface deck 1 mass flow rate check value iteration history trace: 7.055188E-002,7.055188E-002,7.055188E-002,7.055188E-002,7.055188E-002,7.055188E-002,7.055188E-002,7.055188E-002,7.055188E-002,7.055188E-002,
   **   ~~~   ** Air System Named = CENTRAL SYSTEM did not converge for energy
   **   ~~~   ** Check values should be zero. Most Recent values listed first.
   **   ~~~   ** Demand-to-Supply interface energy check value iteration history trace: 1397.334691,1397.334691,1397.334691,1397.334691,1397.334690,1397.334690,1397.334690,1397.334690,1397.334690,1397.334690,
   **   ~~~   ** Supply-to-demand interface deck 1 energy check value iteration history trace: 2512.227158,2512.227157,2512.227157,2512.227157,2512.227157,2512.227157,2512.227157,2512.227157,2512.227157,2512.227157,
   ** Warning ** SimHVAC: Maximum iterations (20) exceeded for all HVAC loops, at ANNUAL, 02/25 17:57 - 18:00
   **   ~~~   ** The solution for one or more of the Air Loop HVAC systems did not appear to converge
   **   ~~~   ** Air System Named = CENTRAL SYSTEM did not converge for mass flow rate
   **   ~~~   ** Check values should be zero. Most Recent values listed first.
   **   ~~~   ** Demand-to-Supply interface mass flow rate check value iteration history trace: 7.771570E-002,7.771570E-002,7.771570E-002,7.771570E-002,7.771570E-002,7.771570E-002,7.771570E-002,7.771570E-002,7.771570E-002,7.771570E-002,
   **   ~~~   ** Supply-to-demand interface deck 1 mass flow rate check value iteration history trace: 7.771570E-002,7.771570E-002,7.771570E-002,7.771570E-002,7.771570E-002,7.771570E-002,7.771570E-002,7.771570E-002,7.771570E-002,7.771570E-002,
   **   ~~~   ** Air System Named = CENTRAL SYSTEM did not converge for energy
   **   ~~~   ** Check values should be zero. Most Recent values listed first.
   **   ~~~   ** Demand-to-Supply interface energy check value iteration history trace: 1538.735927,1538.735926,1538.735926,1538.735926,1538.735926,1538.735926,1538.735926,1538.735926,1538.735926,1538.735926,
   **   ~~~   ** Supply-to-demand interface deck 1 energy check value iteration history trace: 2379.488565,2379.488565,2379.488565,2379.488565,2379.488565,2379.488565,2379.488564,2379.488564,2379.488564,2379.488564,
   ** Warning ** SimHVAC: Maximum iterations (20) exceeded for all HVAC loops, at ANNUAL, 03/23 23:45 - 24:00
   **   ~~~   ** The solution for one or more of the Air Loop HVAC systems did not appear to converge
   **   ~~~   ** Air System Named = CENTRAL SYSTEM did not converge for mass flow rate
   **   ~~~   ** Check values should be zero. Most Recent values listed first.
   **   ~~~   ** Demand-to-Supply interface mass flow rate check value iteration history trace: 4.670449E-002,4.670449E-002,4.670449E-002,4.670449E-002,4.670449E-002,4.670449E-002,4.670449E-002,4.670449E-002,4.670449E-002,4.670449E-002,
   **   ~~~   ** Supply-to-demand interface deck 1 mass flow rate check value iteration history trace: 4.670449E-002,4.670449E-002,4.670449E-002,4.670449E-002,4.670449E-002,4.670449E-002,4.670449E-002,4.670449E-002,4.670449E-002,4.670449E-002,
   **   ~~~   ** Air System Named = CENTRAL SYSTEM did not converge for energy
   **   ~~~   ** Check values should be zero. Most Recent values listed first.
   **   ~~~   ** Demand-to-Supply interface energy check value iteration history trace: 872.819936,872.819936,872.819935,872.819935,872.819935,872.819935,872.819935,872.819935,872.819935,872.819935,
   **   ~~~   ** Supply-to-demand interface deck 1 energy check value iteration history trace: 1670.820483,1670.820483,1670.820482,1670.820482,1670.820482,1670.820482,1670.820481,1670.820481,1670.820481,1670.820481,
   **   ~~~   ** Node named ZONE INLET NODE shows oscillating temperatures across iterations with a repeated value of 35.601848
   **   ~~~   ** Node named ZONE INLET NODE temperature [C] iteration history trace (most recent first): 35.601848,35.601848,35.601848,35.601847,35.601847,35.601847,35.601847,35.601846,35.601846,35.601846,
   ** Warning ** SimHVAC: Maximum iterations (20) exceeded for all HVAC loops, at ANNUAL, 03/26 09:49 - 09:52
   **   ~~~   ** The solution for one or more of the Air Loop HVAC systems did not appear to converge
   **   ~~~   ** Air System Named = CENTRAL SYSTEM did not converge for mass flow rate
   **   ~~~   ** Check values should be zero. Most Recent values listed first.
   **   ~~~   ** Demand-to-Supply interface mass flow rate check value iteration history trace: 6.066482E-002,6.066482E-002,6.066482E-002,6.066482E-002,6.066482E-002,6.066482E-002,6.066482E-002,6.066482E-002,6.066482E-002,6.066482E-002,
   **   ~~~   ** Supply-to-demand interface deck 1 mass flow rate check value iteration history trace: 6.066482E-002,6.066482E-002,6.066482E-002,6.066482E-002,6.066482E-002,6.066482E-002,6.066482E-002,6.066482E-002,6.066482E-002,6.066482E-002,
   **   ~~~   ** Air System Named = CENTRAL SYSTEM did not converge for energy
   **   ~~~   ** Check values should be zero. Most Recent values listed first.
   **   ~~~   ** Demand-to-Supply interface energy check value iteration history trace: 1202.212074,1202.212074,1202.212074,1202.212074,1202.212074,1202.212074,1202.212074,1202.212074,1202.212074,1202.212074,
   **   ~~~   ** Supply-to-demand interface deck 1 energy check value iteration history trace: 2176.384471,2176.384471,2176.384471,2176.384471,2176.384471,2176.384471,2176.384471,2176.384471,2176.384470,2176.384470,
   ** Warning ** SimHVAC: Maximum iterations (20) exceeded for all HVAC loops, at ANNUAL, 03/31 17:15 - 17:30
   **   ~~~   ** The solution for one or more of the Air Loop HVAC systems did not appear to converge
   **   ~~~   ** Air System Named = CENTRAL SYSTEM did not converge for mass flow rate
   **   ~~~   ** Check values should be zero. Most Recent values listed first.
   **   ~~~   ** Demand-to-Supply interface mass flow rate check value iteration history trace: 4.953338E-002,4.953338E-002,4.953338E-002,4.953338E-002,4.953338E-002,4.953338E-002,4.953338E-002,4.953338E-002,4.953338E-002,4.953338E-002,
   **   ~~~   ** Supply-to-demand interface deck 1 mass flow rate check value iteration history trace: 4.953338E-002,4.953338E-002,4.953338E-002,4.953338E-002,4.953338E-002,4.953338E-002,4.953338E-002,4.953338E-002,4.953338E-002,4.953338E-002,
   **   ~~~   ** Air System Named = CENTRAL SYSTEM did not converge for energy
   **   ~~~   ** Check values should be zero. Most Recent values listed first.
   **   ~~~   ** Demand-to-Supply interface energy check value iteration history trace: 981.557434,981.557434,981.557434,981.557434,981.557434,981.557433,981.557433,981.557433,981.557433,981.557433,
   **   ~~~   ** Supply-to-demand interface deck 1 energy check value iteration history trace: 1816.639674,1816.639674,1816.639674,1816.639674,1816.639674,1816.639674,1816.639674,1816.639673,1816.639673,1816.639673,
   ** Warning ** SimHVAC: Maximum iterations (20) exceeded for all HVAC loops, at ANNUAL, 04/05 09:08 - 09:11
   **   ~~~   ** The solution for one or more of the Air Loop HVAC systems did not appear to converge
   **   ~~~   ** Air System Named = CENTRAL SYSTEM did not converge for mass flow rate
   **   ~~~   ** Check values should be zero. Most Recent values listed first.
   **   ~~~   ** Demand-to-Supply interface mass flow rate check value iteration history trace: 8.685625E-002,8.685625E-002,8.685625E-002,8.685625E-002,8.685625E-002,8.685625E-002,8.685625E-002,8.685625E-002,8.685625E-002,8.685625E-002,
   **   ~~~   ** Supply-to-demand interface deck 1 mass flow rate check value iteration history trace: 8.685625E-002,8.685625E-002,8.685625E-002,8.685625E-002,8.685625E-002,8.685625E-002,8.685625E-002,8.685625E-002,8.685625E-002,8.685625E-002,
   **   ~~~   ** Air System Named = CENTRAL SYSTEM did not converge for energy
   **   ~~~   ** Check values should be zero. Most Recent values listed first.
   **   ~~~   ** Demand-to-Supply interface energy check value iteration history trace: 1721.224156,1721.224156,1721.224156,1721.224156,1721.224156,1721.224156,1721.224155,1721.224155,1721.224155,1721.224155,
   **   ~~~   ** Supply-to-demand interface deck 1 energy check value iteration history trace: 2852.121439,2852.121439,2852.121439,2852.121439,2852.121439,2852.121439,2852.121438,2852.121438,2852.121438,2852.121438,
   ** Warning ** SimHVAC: Maximum iterations (20) exceeded for all HVAC loops, at ANNUAL, 04/07 09:45 - 10:00
   **   ~~~   ** The solution for one or more of the Air Loop HVAC systems did not appear to converge
   **   ~~~   ** Air System Named = CENTRAL SYSTEM did not converge for mass flow rate
   **   ~~~   ** Check values should be zero. Most Recent values listed first.
   **   ~~~   ** Demand-to-Supply interface mass flow rate check value iteration history trace: 5.682162E-002,5.682162E-002,5.682162E-002,5.682162E-002,5.682162E-002,5.682162E-002,5.682162E-002,5.682162E-002,5.682162E-002,5.682162E-002,
   **   ~~~   ** Supply-to-demand interface deck 1 mass flow rate check value iteration history trace: 5.682162E-002,5.682162E-002,5.682162E-002,5.682162E-002,5.682162E-002,5.682162E-002,5.682162E-002,5.682162E-002,5.682162E-002,5.682162E-002,
   **   ~~~   ** Air System Named = CENTRAL SYSTEM did not converge for energy
   **   ~~~   ** Check values should be zero. Most Recent values listed first.
   **   ~~~   ** Demand-to-Supply interface energy check value iteration history trace: 1126.036133,1126.036133,1126.036133,1126.036133,1126.036133,1126.036132,1126.036132,1126.036132,1126.036132,1126.036132,
   **   ~~~   ** Supply-to-demand interface deck 1 energy check value iteration history trace: 2027.628602,2027.628601,2027.628601,2027.628601,2027.628601,2027.628601,2027.628601,2027.628601,2027.628601,2027.628601,
   ** Warning ** SimHVAC: Maximum iterations (20) exceeded for all HVAC loops, at ANNUAL, 04/17 00:25 - 00:30
   **   ~~~   ** The solution for one or more of the Air Loop HVAC systems did not appear to converge
   **   ~~~   ** Air System Named = CENTRAL SYSTEM did not converge for mass flow rate
   **   ~~~   ** Check values should be zero. Most Recent values listed first.
   **   ~~~   ** Demand-to-Supply interface mass flow rate check value iteration history trace: 5.448034E-002,5.448034E-002,5.448034E-002,5.448034E-002,5.448034E-002,5.448034E-002,5.448034E-002,5.448034E-002,5.448034E-002,5.448034E-002,
   **   ~~~   ** Supply-to-demand interface deck 1 mass flow rate check value iteration history trace: 5.448034E-002,5.448034E-002,5.448034E-002,5.448034E-002,5.448034E-002,5.448034E-002,5.448034E-002,5.448034E-002,5.448034E-002,5.448034E-002,
   **   ~~~   ** Air System Named = CENTRAL SYSTEM did not converge for energy
   **   ~~~   ** Check values should be zero. Most Recent values listed first.
   **   ~~~   ** Demand-to-Supply interface energy check value iteration history trace: 1018.819306,1018.819306,1018.819306,1018.819306,1018.819306,1018.819306,1018.819306,1018.819306,1018.819306,1018.819306,
   **   ~~~   ** Supply-to-demand interface deck 1 energy check value iteration history trace: 1866.741760,1866.741760,1866.741760,1866.741760,1866.741760,1866.741760,1866.741759,1866.741759,1866.741759,1866.741759,
   ** Warning ** SimHVAC: Maximum iterations (20) exceeded for all HVAC loops, at ANNUAL, 04/17 08:40 - 08:45
   **   ~~~   ** The solution for one or more of the Air Loop HVAC systems did not appear to converge
   **   ~~~   ** Air System Named = CENTRAL SYSTEM did not converge for mass flow rate
   **   ~~~   ** Check values should be zero. Most Recent values listed first.
   **   ~~~   ** Demand-to-Supply interface mass flow rate check value iteration history trace: 6.012912E-002,6.012912E-002,6.012912E-002,6.012912E-002,6.012912E-002,6.012912E-002,6.012912E-002,6.012912E-002,6.012912E-002,6.012912E-002,
   **   ~~~   ** Supply-to-demand interface deck 1 mass flow rate check value iteration history trace: 6.012912E-002,6.012912E-002,6.012912E-002,6.012912E-002,6.012912E-002,6.012912E-002,6.012912E-002,6.012912E-002,6.012912E-002,6.012912E-002,
   **   ~~~   ** Air System Named = CENTRAL SYSTEM did not converge for energy
   **   ~~~   ** Check values should be zero. Most Recent values listed first.
   **   ~~~   ** Demand-to-Supply interface energy check value iteration history trace: 1191.554618,1191.554618,1191.554618,1191.554618,1191.554618,1191.554617,1191.554617,1191.554617,1191.554617,1191.554617,
   **   ~~~   ** Supply-to-demand interface deck 1 energy check value iteration history trace: 2212.537565,2212.537565,2212.537565,2212.537565,2212.537564,2212.537564,2212.537564,2212.537564,2212.537564,2212.537564,
   ** Warning ** SimHVAC: Maximum iterations (20) exceeded for all HVAC loops, at ANNUAL, 04/28 04:15 - 04:30
   **   ~~~   ** The solution for one or more of the Air Loop HVAC systems did not appear to converge
   **   ~~~   ** Air System Named = CENTRAL SYSTEM did not converge for mass flow rate
   **   ~~~   ** Check values should be zero. Most Recent values listed first.
   **   ~~~   ** Demand-to-Supply interface mass flow rate check value iteration history trace: 1.965009E-002,1.965009E-002,1.965009E-002,1.965009E-002,1.965009E-002,1.965009E-002,1.965009E-002,1.965009E-002,1.965009E-002,1.965009E-002,
   **   ~~~   ** Supply-to-demand interface deck 1 mass flow rate check value iteration history trace: 1.965009E-002,1.965009E-002,1.965009E-002,1.965009E-002,1.965009E-002,1.965009E-002,1.965009E-002,1.965009E-002,1.965009E-002,1.965009E-002,
   **   ~~~   ** Air System Named = CENTRAL SYSTEM did not converge for energy
   **   ~~~   ** Check values should be zero. Most Recent values listed first.
   **   ~~~   ** Demand-to-Supply interface energy check value iteration history trace: 363.699066,363.699066,363.699066,363.699066,363.699066,363.699066,363.699066,363.699066,363.699066,363.699066,
   **   ~~~   ** Supply-to-demand interface deck 1 energy check value iteration history trace: 696.289997,696.289997,696.289997,696.289997,696.289997,696.289997,696.289997,696.289997,696.289997,696.289997,
   ** Warning ** SimHVAC: Maximum iterations (20) exceeded for all HVAC loops, at ANNUAL, 10/14 16:45 - 17:00
   **   ~~~   ** The solution for one or more of the Air Loop HVAC systems did not appear to converge
   **   ~~~   ** Air System Named = CENTRAL SYSTEM did not converge for mass flow rate
   **   ~~~   ** Check values should be zero. Most Recent values listed first.
   **   ~~~   ** Demand-to-Supply interface mass flow rate check value iteration history trace: 6.938978E-002,6.938978E-002,6.938978E-002,6.938978E-002,6.938978E-002,6.938978E-002,6.938978E-002,6.938978E-002,6.938978E-002,6.938978E-002,
   **   ~~~   ** Supply-to-demand interface deck 1 mass flow rate check value iteration history trace: 6.938978E-002,6.938978E-002,6.938978E-002,6.938978E-002,6.938978E-002,6.938978E-002,6.938978E-002,6.938978E-002,6.938978E-002,6.938978E-002,
   **   ~~~   ** Air System Named = CENTRAL SYSTEM did not converge for energy
   **   ~~~   ** Check values should be zero. Most Recent values listed first.
   **   ~~~   ** Demand-to-Supply interface energy check value iteration history trace: 1640.485954,1640.485954,1640.485954,1640.485954,1640.485955,1640.485955,1640.485955,1640.485955,1640.485955,1640.485955,
   **   ~~~   ** Supply-to-demand interface deck 1 energy check value iteration history trace: 794.452978,794.452979,794.452979,794.452979,794.452979,794.452979,794.452979,794.452979,794.452979,794.452979,
   ** Warning ** SimHVAC: Maximum iterations (20) exceeded for all HVAC loops, at ANNUAL, 10/14 19:45 - 20:00
   **   ~~~   ** The solution for one or more of the Air Loop HVAC systems did not appear to converge
   **   ~~~   ** Air System Named = CENTRAL SYSTEM did not converge for mass flow rate
   **   ~~~   ** Check values should be zero. Most Recent values listed first.
   **   ~~~   ** Demand-to-Supply interface mass flow rate check value iteration history trace: 7.793716E-002,7.793716E-002,7.793716E-002,7.793716E-002,7.793716E-002,7.793716E-002,7.793716E-002,7.793716E-002,7.793716E-002,7.793716E-002,
   **   ~~~   ** Supply-to-demand interface deck 1 mass flow rate check value iteration history trace: 7.793716E-002,7.793716E-002,7.793716E-002,7.793716E-002,7.793716E-002,7.793716E-002,7.793716E-002,7.793716E-002,7.793716E-002,7.793716E-002,
   **   ~~~   ** Air System Named = CENTRAL SYSTEM did not converge for energy
   **   ~~~   ** Check values should be zero. Most Recent values listed first.
   **   ~~~   ** Demand-to-Supply interface energy check value iteration history trace: 1831.517573,1831.517573,1831.517574,1831.517574,1831.517574,1831.517575,1831.517575,1831.517575,1831.517575,1831.517576,
   **   ~~~   ** Supply-to-demand interface deck 1 energy check value iteration history trace: 837.825889,837.825889,837.825890,837.825890,837.825890,837.825890,837.825890,837.825890,837.825890,837.825891,
   ** Warning ** SimHVAC: Maximum iterations (20) exceeded for all HVAC loops, at ANNUAL, 11/16 18:53 - 19:00
   **   ~~~   ** The solution for one or more of the Air Loop HVAC systems did not appear to converge
   **   ~~~   ** Air System Named = CENTRAL SYSTEM did not converge for mass flow rate
   **   ~~~   ** Check values should be zero. Most Recent values listed first.
   **   ~~~   ** Demand-to-Supply interface mass flow rate check value iteration history trace: 6.548102E-002,6.548102E-002,6.548102E-002,6.548102E-002,6.548102E-002,6.548102E-002,6.548102E-002,6.548102E-002,6.548102E-002,6.548102E-002,
   **   ~~~   ** Supply-to-demand interface deck 1 mass flow rate check value iteration history trace: 6.548102E-002,6.548102E-002,6.548102E-002,6.548102E-002,6.548102E-002,6.548102E-002,6.548102E-002,6.548102E-002,6.548102E-002,6.548102E-002,
   **   ~~~   ** Air System Named = CENTRAL SYSTEM did not converge for energy
   **   ~~~   ** Check values should be zero. Most Recent values listed first.
   **   ~~~   ** Demand-to-Supply interface energy check value iteration history trace: 1285.235206,1285.235206,1285.235206,1285.235206,1285.235206,1285.235206,1285.235205,1285.235205,1285.235205,1285.235205,
   **   ~~~   ** Supply-to-demand interface deck 1 energy check value iteration history trace: 2309.609712,2309.609712,2309.609712,2309.609712,2309.609712,2309.609712,2309.609712,2309.609712,2309.609712,2309.609712,
   ** Warning ** SimHVAC: Maximum iterations (20) exceeded for all HVAC loops, at ANNUAL, 11/23 12:00 - 12:15
   **   ~~~   ** The solution for one or more of the Air Loop HVAC systems did not appear to converge
   **   ~~~   ** Air System Named = CENTRAL SYSTEM did not converge for mass flow rate
   **   ~~~   ** Check values should be zero. Most Recent values listed first.
   **   ~~~   ** Demand-to-Supply interface mass flow rate check value iteration history trace: 7.827048E-002,7.827048E-002,7.827048E-002,7.827048E-002,7.827048E-002,7.827048E-002,7.827048E-002,7.827048E-002,7.827048E-002,7.827048E-002,
   **   ~~~   ** Supply-to-demand interface deck 1 mass flow rate check value iteration history trace: 7.827048E-002,7.827048E-002,7.827048E-002,7.827048E-002,7.827048E-002,7.827048E-002,7.827048E-002,7.827048E-002,7.827048E-002,7.827048E-002,
   **   ~~~   ** Air System Named = CENTRAL SYSTEM did not converge for energy
   **   ~~~   ** Check values should be zero. Most Recent values listed first.
   **   ~~~   ** Demand-to-Supply interface energy check value iteration history trace: 1548.370636,1548.370636,1548.370636,1548.370636,1548.370636,1548.370636,1548.370635,1548.370635,1548.370635,1548.370635,
   **   ~~~   ** Supply-to-demand interface deck 1 energy check value iteration history trace: 2460.415419,2460.415419,2460.415419,2460.415419,2460.415418,2460.415418,2460.415418,2460.415418,2460.415418,2460.415418,
   ************* Simulation Error Summary *************
   ** Warning ** The following Report Variables were requested but not generated -- check.rdd file
   **   ~~~   ** Either the IDF did not contain these elements, the variable name is misspelled,
   **   ~~~   ** or the requested variable is an advanced output which requires Output : Diagnostics, DisplayAdvancedReportVariables;
   ************* Key=*, VarName=BASEBOARD TOTAL HEATING ENERGY, Frequency=
   ************* Key=*, VarName=WATER HEATER NATURALGAS ENERGY, Frequency=
   ************* Key=*, VarName=COOLING COIL TOTAL HEATING ENERGY, Frequency=
   ************* There are 34 unused schedules in input.
   ************* There are 388 unused week schedules in input.
   ************* There are 397 unused day schedules in input.
   ************* Use Output:Diagnostics,DisplayUnusedSchedules; to see them.
   *************
   ************* ===== Recurring Error Summary =====
   ************* The following recurring error messages occurred.
   *************
   *************  ** Warning ** "TOTAL HOT WATER LOAD" - Target water temperature should be less than or equal to the hot water temperature error continues...
   *************  **   ~~~   **   This error occurred 84445 total times;
   *************  **   ~~~   **   during Warmup 0 times;
   *************  **   ~~~   **   during Sizing 0 times.
   *************  **   ~~~   **   Max=9.675516  Min=9.618614E-004
   *************
   *************  ** Warning ** SimHVAC: Exceeding Maximum iterations for all HVAC loops, during ANNUAL continues
   *************  **   ~~~   **   This error occurred 1 total times;
   *************  **   ~~~   **   during Warmup 0 times;
   *************  **   ~~~   **   during Sizing 0 times.
   *************
   *************
   ************* ===== Final Error Summary =====
   ************* The following error categories occurred.  Consider correcting or noting.
   ************* Nominally Unused Constructions
   ************* ..The nominally unused constructions warning is provided to alert you to potential conditions that can cause
   ************* ..extra time during simulation. Each construction is calculated by the algorithm indicated in the HeatBalanceAlgorithm
   ************* ..object. You may remove the constructions indicated (when you use the DisplayExtraWarnings option).
   *************
   ************* EnergyPlus Warmup Error Summary. During Warmup: 0 Warning; 0 Severe Errors.
   ************* EnergyPlus Sizing Error Summary. During Sizing: 4 Warning; 0 Severe Errors.
   ************* EnergyPlus Completed Successfully-- 84477 Warning; 0 Severe Errors; Elapsed Time=00hr 01min 24.88sec
