Program Version,EnergyPlus, Version 22.2.0-c249759bad, YMD=2023.09.01 19:39,
   ************* Beginning Zone Sizing Calculations
   ** Warning ** ProcessScheduleInput: Schedule:Constant="ALWAYS ON DISCRETE", Schedule Type Limits Name="ONOFF" not found -- will not be validated
   ** Warning ** Foundation:Kiva="KIVA FOUNDATION", no Interior Horizontal Insulation Material Name defined
   **   ~~~   ** Interior Horizontal Insulation Depth will not be used.
   ** Warning ** CheckUsedConstructions: There are 15 nominally unused constructions in input.
   **   ~~~   ** Each Unused construction is shown.
   ************* Construction=INTERIOR FLOOR
   ************* Construction=INTERIOR WINDOW
   ************* Construction=EXTERIOR DOOR
   ************* Construction=INTERIOR DOOR
   ************* Construction=GABLE CONSTRUCTION
   ************* Construction=CRAWL_FLOOR
   ************* Construction=INSULATED PIPE
   ************* Construction=PLAIN PIPE
   ************* Construction=TDD PIPE
   ************* Construction=TDD DOME
   ************* Construction=TDD DIFFUSER
   ************* Construction=CRAWL WALL
   ************* Construction=CEILING-FLOOR-LAYER
   ************* Construction=SLAB CONSTRUCTION W FULL R10 INSULATION
   ************* Construction=SLAB CONSTRUCTION W FULL R5 INSULATION
   ** Warning ** GetDXCoils: Coil:Heating:DX:SingleSpeed="DX_HEATING_COIL" curve values
   **   ~~~   ** ... Defrost Energy Input Ratio Function of Temperature Curve Name = DEFROSTEIR output is not equal to 1.0 (+ or - 10%) at rated conditions.
   **   ~~~   ** ... Curve output at rated conditions = 0.152
   ************* Beginning System Sizing Calculations
   ************* Beginning Plant Sizing Calculations
   ** Warning ** SizeDXCoil Coil:Cooling:DX:SingleSpeed DX_COOLING_COIL
   **   ~~~   ** ...Gross Rated Total Cooling Capacity [W] will be limited by the maximum rated volume flow per rated total capacity ratio.
   **   ~~~   ** ...DX coil volume flow rate ( m3/s ) = 0.425798
   **   ~~~   ** ...Requested capacity ( W ) = 6608.003
   **   ~~~   ** ...Requested flow/capacity ratio ( m3/s/W ) = 6.443E-005
   **   ~~~   ** ...Maximum flow/capacity ratio ( m3/s/W ) = 6.041E-005
   **   ~~~   ** ...Adjusted capacity ( W ) = 7048.480
   ** Warning ** Coil:WaterHeating:AirToWaterHeatPump:Wrapped "HEAT PUMP WATER HEATER EVAPORATOR": Rated air volume flow rate per watt of rated total water heating capacity is out of range
   **   ~~~   ** Min Rated Vol Flow Per Watt=[4.027E-005], Rated Vol Flow Per Watt=[1.510E-004], Max Rated Vol Flow Per Watt=[8.056E-005]. See Input-Output Reference Manual for valid range.
   ************* SizeFan: : Potential issue with equipment sizing for Fan:OnOff HEAT PUMP WATER HEATER FAN
   **   ~~~   ** User-Specified Maximum Flow Rate [m3/s] = 0.22653
   **   ~~~   ** differs from Design Size Maximum Flow Rate [m3/s] = 7.55250E-002
   **   ~~~   ** This may, or may not, indicate mismatched component sizes.
   **   ~~~   ** Verify that the value entered is intended and is consistent with other components.
   ** Warning ** Water heater = WATER HEATER TANK:  Recovery Efficiency and Energy Factor could not be calculated during the test for standard ratings
   **   ~~~   ** Setpoint was never recovered and/or heater never turned on
   ** Warning ** Check input. Pump nominal power or motor efficiency is set to 0, for pump=MAINS PRESSURE
   ** Warning ** Output:Meter: invalid Key Name="ELECTRIC_RANGE:INTERIOREQUIPMENT:ELECTRICITY" - not found.
   ** Warning ** Output:Meter: invalid Key Name="ELECTRIC_DRYER:INTERIOREQUIPMENT:ELECTRICITY" - not found.
   ** Warning ** Output:Meter: invalid Key Name="HEATRECOVERY:ELECTRICITY" - not found.
   ** Warning ** Output:Meter: invalid Key Name="HEATING:NATURALGAS" - not found.
   ** Warning ** Output:Meter: invalid Key Name="WATERSYSTEMS:NATURALGAS" - not found.
   ** Warning ** Output:Meter: invalid Key Name="PROPANE:FACILITY" - not found.
   ** Warning ** Output:Meter: invalid Key Name="HEATING:PROPANE" - not found.
   ************* Testing Individual Branch Integrity
   ************* All Branches passed integrity testing
   ************* Testing Individual Supply Air Path Integrity
   ************* All Supply Air Paths passed integrity testing
   ************* Testing Individual Return Air Path Integrity
   ************* All Return Air Paths passed integrity testing
   ************* No node connection errors were found.
   ************* Beginning Simulation
   ** Warning ** AirflowNetwork::Solver::validate_distribution: Heat pump water heater is simulated along with an AirflowNetwork but is not included in the AirflowNetwork.
   ** Warning ** CalcEquipmentFlowRates: "TOTAL HOT WATER LOAD" - Target water temperature is greater than the hot water temperature by (0.56 C)
   **   ~~~   **  Environment=EXTREME_WINTER, at Simulation time=01/15 06:00 - 06:15
   **   ~~~   ** ...target water temperature     = 53.33 C
   **   ~~~   ** ...hot water temperature        = 52.77 C
   **   ~~~   ** ...Target water temperature should be less than or equal to the hot water temperature. Verify temperature setpoints and schedules.
   ** Warning ** SimHVAC: Maximum iterations (20) exceeded for all HVAC loops, at ANNUAL, 01/07 08:00 - 08:15
   **   ~~~   ** The solution for one or more of the Air Loop HVAC systems did not appear to converge
   **   ~~~   ** Air System Named = CENTRAL SYSTEM did not converge for mass flow rate
   **   ~~~   ** Check values should be zero. Most Recent values listed first.
   **   ~~~   ** Demand-to-Supply interface mass flow rate check value iteration history trace: 4.794821E-002,4.794821E-002,4.794821E-002,4.794821E-002,4.794821E-002,4.794821E-002,4.794821E-002,4.794821E-002,4.794821E-002,4.794821E-002,
   **   ~~~   ** Supply-to-demand interface deck 1 mass flow rate check value iteration history trace: 4.794821E-002,4.794821E-002,4.794821E-002,4.794821E-002,4.794821E-002,4.794821E-002,4.794821E-002,4.794821E-002,4.794821E-002,4.794821E-002,
   **   ~~~   ** Air System Named = CENTRAL SYSTEM did not converge for energy
   **   ~~~   ** Check values should be zero. Most Recent values listed first.
   **   ~~~   ** Demand-to-Supply interface energy check value iteration history trace: 950.684369,950.684369,950.684369,950.684369,950.684368,950.684368,950.684368,950.684368,950.684368,950.684368,
   **   ~~~   ** Supply-to-demand interface deck 1 energy check value iteration history trace: 1747.747915,1747.747915,1747.747915,1747.747915,1747.747915,1747.747915,1747.747915,1747.747915,1747.747915,1747.747915,
   ** Warning ** SimHVAC: Maximum iterations (20) exceeded for all HVAC loops, at ANNUAL, 01/07 09:23 - 09:30
   **   ~~~   ** The solution for one or more of the Air Loop HVAC systems did not appear to converge
   **   ~~~   ** Air System Named = CENTRAL SYSTEM did not converge for mass flow rate
   **   ~~~   ** Check values should be zero. Most Recent values listed first.
   **   ~~~   ** Demand-to-Supply interface mass flow rate check value iteration history trace: 5.610200E-002,5.610200E-002,5.610200E-002,5.610200E-002,5.610200E-002,5.610200E-002,5.610200E-002,5.610200E-002,5.610200E-002,5.610200E-002,
   **   ~~~   ** Supply-to-demand interface deck 1 mass flow rate check value iteration history trace: 5.610200E-002,5.610200E-002,5.610200E-002,5.610200E-002,5.610200E-002,5.610200E-002,5.610200E-002,5.610200E-002,5.610200E-002,5.610200E-002,
   **   ~~~   ** Air System Named = CENTRAL SYSTEM did not converge for energy
   **   ~~~   ** Check values should be zero. Most Recent values listed first.
   **   ~~~   ** Demand-to-Supply interface energy check value iteration history trace: 1106.381383,1106.381383,1106.381383,1106.381383,1106.381383,1106.381383,1106.381383,1106.381383,1106.381383,1106.381383,
   **   ~~~   ** Supply-to-demand interface deck 1 energy check value iteration history trace: 2061.771891,2061.771891,2061.771891,2061.771891,2061.771891,2061.771891,2061.771891,2061.771891,2061.771891,2061.771891,
   ** Warning ** SimHVAC: Maximum iterations (20) exceeded for all HVAC loops, at ANNUAL, 01/16 20:15 - 20:20
   **   ~~~   ** The solution for one or more of the Air Loop HVAC systems did not appear to converge
   **   ~~~   ** Air System Named = CENTRAL SYSTEM did not converge for mass flow rate
   **   ~~~   ** Check values should be zero. Most Recent values listed first.
   **   ~~~   ** Demand-to-Supply interface mass flow rate check value iteration history trace: 9.373873E-002,9.373873E-002,9.373873E-002,9.373873E-002,9.373873E-002,9.373873E-002,9.373873E-002,9.373873E-002,9.373873E-002,9.373873E-002,
   **   ~~~   ** Supply-to-demand interface deck 1 mass flow rate check value iteration history trace: 9.373873E-002,9.373873E-002,9.373873E-002,9.373873E-002,9.373873E-002,9.373873E-002,9.373873E-002,9.373873E-002,9.373873E-002,9.373873E-002,
   **   ~~~   ** Air System Named = CENTRAL SYSTEM did not converge for energy
   **   ~~~   ** Check values should be zero. Most Recent values listed first.
   **   ~~~   ** Demand-to-Supply interface energy check value iteration history trace: 1859.162910,1859.162910,1859.162910,1859.162909,1859.162909,1859.162909,1859.162909,1859.162909,1859.162909,1859.162909,
   **   ~~~   ** Supply-to-demand interface deck 1 energy check value iteration history trace: 2835.428851,2835.428851,2835.428850,2835.428850,2835.428850,2835.428850,2835.428850,2835.428850,2835.428849,2835.428849,
   ** Warning ** SimHVAC: Maximum iterations (20) exceeded for all HVAC loops, at ANNUAL, 01/29 20:15 - 20:22
   **   ~~~   ** The solution for one or more of the Air Loop HVAC systems did not appear to converge
   **   ~~~   ** Air System Named = CENTRAL SYSTEM did not converge for mass flow rate
   **   ~~~   ** Check values should be zero. Most Recent values listed first.
   **   ~~~   ** Demand-to-Supply interface mass flow rate check value iteration history trace: 6.443680E-002,6.443680E-002,6.443680E-002,6.443680E-002,6.443680E-002,6.443680E-002,6.443680E-002,6.443680E-002,6.443680E-002,6.443680E-002,
   **   ~~~   ** Supply-to-demand interface deck 1 mass flow rate check value iteration history trace: 6.443680E-002,6.443680E-002,6.443680E-002,6.443680E-002,6.443680E-002,6.443680E-002,6.443680E-002,6.443680E-002,6.443680E-002,6.443680E-002,
   **   ~~~   ** Air System Named = CENTRAL SYSTEM did not converge for energy
   **   ~~~   ** Check values should be zero. Most Recent values listed first.
   **   ~~~   ** Demand-to-Supply interface energy check value iteration history trace: 1276.486500,1276.486500,1276.486500,1276.486500,1276.486500,1276.486500,1276.486500,1276.486500,1276.486500,1276.486500,
   **   ~~~   ** Supply-to-demand interface deck 1 energy check value iteration history trace: 2248.576528,2248.576528,2248.576528,2248.576528,2248.576528,2248.576528,2248.576528,2248.576528,2248.576528,2248.576528,
   ** Warning ** SimHVAC: Maximum iterations (20) exceeded for all HVAC loops, at ANNUAL, 02/12 11:15 - 11:22
   **   ~~~   ** The solution for one or more of the Air Loop HVAC systems did not appear to converge
   **   ~~~   ** Air System Named = CENTRAL SYSTEM did not converge for mass flow rate
   **   ~~~   ** Check values should be zero. Most Recent values listed first.
   **   ~~~   ** Demand-to-Supply interface mass flow rate check value iteration history trace: 7.167815E-002,7.167815E-002,7.167815E-002,7.167815E-002,7.167815E-002,7.167815E-002,7.167815E-002,7.167815E-002,7.167815E-002,7.167815E-002,
   **   ~~~   ** Supply-to-demand interface deck 1 mass flow rate check value iteration history trace: 7.167815E-002,7.167815E-002,7.167815E-002,7.167815E-002,7.167815E-002,7.167815E-002,7.167815E-002,7.167815E-002,7.167815E-002,7.167815E-002,
   **   ~~~   ** Air System Named = CENTRAL SYSTEM did not converge for energy
   **   ~~~   ** Check values should be zero. Most Recent values listed first.
   **   ~~~   ** Demand-to-Supply interface energy check value iteration history trace: 1403.607203,1403.607203,1403.607203,1403.607203,1403.607203,1403.607202,1403.607202,1403.607202,1403.607202,1403.607202,
   **   ~~~   ** Supply-to-demand interface deck 1 energy check value iteration history trace: 2428.685848,2428.685847,2428.685847,2428.685847,2428.685847,2428.685847,2428.685847,2428.685847,2428.685847,2428.685847,
   ** Warning ** SimHVAC: Maximum iterations (20) exceeded for all HVAC loops, at ANNUAL, 02/15 21:00 - 21:15
   **   ~~~   ** The solution for one or more of the Air Loop HVAC systems did not appear to converge
   **   ~~~   ** Air System Named = CENTRAL SYSTEM did not converge for mass flow rate
   **   ~~~   ** Check values should be zero. Most Recent values listed first.
   **   ~~~   ** Demand-to-Supply interface mass flow rate check value iteration history trace: 8.521655E-002,8.521655E-002,8.521655E-002,8.521655E-002,8.521655E-002,8.521655E-002,8.521655E-002,8.521655E-002,8.521655E-002,8.521655E-002,
   **   ~~~   ** Supply-to-demand interface deck 1 mass flow rate check value iteration history trace: 8.521655E-002,8.521655E-002,8.521655E-002,8.521655E-002,8.521655E-002,8.521655E-002,8.521655E-002,8.521655E-002,8.521655E-002,8.521655E-002,
   **   ~~~   ** Air System Named = CENTRAL SYSTEM did not converge for energy
   **   ~~~   ** Check values should be zero. Most Recent values listed first.
   **   ~~~   ** Demand-to-Supply interface energy check value iteration history trace: 1690.055966,1690.055966,1690.055965,1690.055965,1690.055965,1690.055965,1690.055965,1690.055965,1690.055965,1690.055965,
   **   ~~~   ** Supply-to-demand interface deck 1 energy check value iteration history trace: 2625.234818,2625.234818,2625.234818,2625.234817,2625.234817,2625.234817,2625.234817,2625.234817,2625.234817,2625.234816,
   ** Warning ** SimHVAC: Maximum iterations (20) exceeded for all HVAC loops, at ANNUAL, 03/05 23:30 - 23:45
   **   ~~~   ** The solution for one or more of the Air Loop HVAC systems did not appear to converge
   **   ~~~   ** Air System Named = CENTRAL SYSTEM did not converge for mass flow rate
   **   ~~~   ** Check values should be zero. Most Recent values listed first.
   **   ~~~   ** Demand-to-Supply interface mass flow rate check value iteration history trace: 4.619916E-002,4.619916E-002,4.619916E-002,4.619916E-002,4.619916E-002,4.619916E-002,4.619916E-002,4.619916E-002,4.619916E-002,4.619916E-002,
   **   ~~~   ** Supply-to-demand interface deck 1 mass flow rate check value iteration history trace: 4.619916E-002,4.619916E-002,4.619916E-002,4.619916E-002,4.619916E-002,4.619916E-002,4.619916E-002,4.619916E-002,4.619916E-002,4.619916E-002,
   **   ~~~   ** Air System Named = CENTRAL SYSTEM did not converge for energy
   **   ~~~   ** Check values should be zero. Most Recent values listed first.
   **   ~~~   ** Demand-to-Supply interface energy check value iteration history trace: 859.529148,859.529148,859.529148,859.529148,859.529148,859.529148,859.529148,859.529148,859.529148,859.529148,
   **   ~~~   ** Supply-to-demand interface deck 1 energy check value iteration history trace: 1328.330544,1328.330544,1328.330544,1328.330544,1328.330544,1328.330544,1328.330544,1328.330544,1328.330544,1328.330544,
   ** Warning ** SimHVAC: Maximum iterations (20) exceeded for all HVAC loops, at ANNUAL, 03/13 14:30 - 14:45
   **   ~~~   ** The solution for one or more of the Air Loop HVAC systems did not appear to converge
   **   ~~~   ** Air System Named = CENTRAL SYSTEM did not converge for mass flow rate
   **   ~~~   ** Check values should be zero. Most Recent values listed first.
   **   ~~~   ** Demand-to-Supply interface mass flow rate check value iteration history trace: 5.386578E-002,5.386578E-002,5.386578E-002,5.386578E-002,5.386578E-002,5.386578E-002,5.386578E-002,5.386578E-002,5.386578E-002,5.386578E-002,
   **   ~~~   ** Supply-to-demand interface deck 1 mass flow rate check value iteration history trace: 5.386578E-002,5.386578E-002,5.386578E-002,5.386578E-002,5.386578E-002,5.386578E-002,5.386578E-002,5.386578E-002,5.386578E-002,5.386578E-002,
   **   ~~~   ** Air System Named = CENTRAL SYSTEM did not converge for energy
   **   ~~~   ** Check values should be zero. Most Recent values listed first.
   **   ~~~   ** Demand-to-Supply interface energy check value iteration history trace: 1056.941826,1056.941826,1056.941826,1056.941826,1056.941826,1056.941826,1056.941826,1056.941826,1056.941826,1056.941826,
   **   ~~~   ** Supply-to-demand interface deck 1 energy check value iteration history trace: 1878.166544,1878.166544,1878.166544,1878.166544,1878.166544,1878.166544,1878.166544,1878.166544,1878.166544,1878.166544,
   ** Warning ** SimHVAC: Maximum iterations (20) exceeded for all HVAC loops, at ANNUAL, 04/14 05:45 - 06:00
   **   ~~~   ** The solution for one or more of the Air Loop HVAC systems did not appear to converge
   **   ~~~   ** Air System Named = CENTRAL SYSTEM did not converge for mass flow rate
   **   ~~~   ** Check values should be zero. Most Recent values listed first.
   **   ~~~   ** Demand-to-Supply interface mass flow rate check value iteration history trace: 9.177552E-002,9.177552E-002,9.177552E-002,9.177552E-002,9.177552E-002,9.177552E-002,9.177552E-002,9.177552E-002,9.177552E-002,9.177552E-002,
   **   ~~~   ** Supply-to-demand interface deck 1 mass flow rate check value iteration history trace: 9.177552E-002,9.177552E-002,9.177552E-002,9.177552E-002,9.177552E-002,9.177552E-002,9.177552E-002,9.177552E-002,9.177552E-002,9.177552E-002,
   **   ~~~   ** Air System Named = CENTRAL SYSTEM did not converge for energy
   **   ~~~   ** Check values should be zero. Most Recent values listed first.
   **   ~~~   ** Demand-to-Supply interface energy check value iteration history trace: 1823.917075,1823.917075,1823.917074,1823.917074,1823.917074,1823.917074,1823.917074,1823.917074,1823.917074,1823.917074,
   **   ~~~   ** Supply-to-demand interface deck 1 energy check value iteration history trace: 2747.644022,2747.644021,2747.644021,2747.644021,2747.644021,2747.644021,2747.644020,2747.644020,2747.644020,2747.644020,
   ** Warning ** SimHVAC: Maximum iterations (20) exceeded for all HVAC loops, at ANNUAL, 05/12 00:23 - 00:30
   **   ~~~   ** The solution for one or more of the Air Loop HVAC systems did not appear to converge
   **   ~~~   ** Air System Named = CENTRAL SYSTEM did not converge for mass flow rate
   **   ~~~   ** Check values should be zero. Most Recent values listed first.
   **   ~~~   ** Demand-to-Supply interface mass flow rate check value iteration history trace: 0.125171,0.125171,0.125171,0.125171,0.125171,0.125171,0.125171,0.125171,0.125171,0.125171,
   **   ~~~   ** Supply-to-demand interface deck 1 mass flow rate check value iteration history trace: 0.125171,0.125171,0.125171,0.125171,0.125171,0.125171,0.125171,0.125171,0.125171,0.125171,
   **   ~~~   ** Air System Named = CENTRAL SYSTEM did not converge for energy
   **   ~~~   ** Check values should be zero. Most Recent values listed first.
   **   ~~~   ** Demand-to-Supply interface energy check value iteration history trace: 3098.090480,3098.090481,3098.090482,3098.090483,3098.090484,3098.090484,3098.090485,3098.090486,3098.090487,3098.090488,
   **   ~~~   ** Supply-to-demand interface deck 1 energy check value iteration history trace: 1527.093607,1527.093607,1527.093607,1527.093608,1527.093608,1527.093609,1527.093609,1527.093609,1527.093610,1527.093610,
   ** Warning ** SimHVAC: Maximum iterations (20) exceeded for all HVAC loops, at ANNUAL, 05/19 06:20 - 06:25
   **   ~~~   ** The solution for one or more of the Air Loop HVAC systems did not appear to converge
   **   ~~~   ** Air System Named = CENTRAL SYSTEM did not converge for mass flow rate
   **   ~~~   ** Check values should be zero. Most Recent values listed first.
   **   ~~~   ** Demand-to-Supply interface mass flow rate check value iteration history trace: 9.327214E-002,9.327214E-002,9.327214E-002,9.327214E-002,9.327214E-002,9.327214E-002,9.327214E-002,9.327214E-002,9.327214E-002,9.327214E-002,
   **   ~~~   ** Supply-to-demand interface deck 1 mass flow rate check value iteration history trace: 9.327214E-002,9.327214E-002,9.327214E-002,9.327214E-002,9.327214E-002,9.327214E-002,9.327214E-002,9.327214E-002,9.327214E-002,9.327214E-002,
   **   ~~~   ** Air System Named = CENTRAL SYSTEM did not converge for energy
   **   ~~~   ** Check values should be zero. Most Recent values listed first.
   **   ~~~   ** Demand-to-Supply interface energy check value iteration history trace: 1840.535367,1840.535367,1840.535367,1840.535367,1840.535367,1840.535366,1840.535366,1840.535366,1840.535366,1840.535366,
   **   ~~~   ** Supply-to-demand interface deck 1 energy check value iteration history trace: 2742.687963,2742.687963,2742.687963,2742.687963,2742.687963,2742.687962,2742.687962,2742.687962,2742.687962,2742.687962,
   ** Warning ** SimHVAC: Maximum iterations (20) exceeded for all HVAC loops, at ANNUAL, 05/19 11:26 - 11:30
   **   ~~~   ** The solution for one or more of the Air Loop HVAC systems did not appear to converge
   **   ~~~   ** Air System Named = CENTRAL SYSTEM did not converge for mass flow rate
   **   ~~~   ** Check values should be zero. Most Recent values listed first.
   **   ~~~   ** Demand-to-Supply interface mass flow rate check value iteration history trace: 0.165832,0.165832,0.165832,0.165832,0.165832,0.165832,0.165832,0.165832,0.165832,0.165832,
   **   ~~~   ** Supply-to-demand interface deck 1 mass flow rate check value iteration history trace: 0.165832,0.165832,0.165832,0.165832,0.165832,0.165832,0.165832,0.165832,0.165832,0.165832,
   **   ~~~   ** Air System Named = CENTRAL SYSTEM did not converge for energy
   **   ~~~   ** Check values should be zero. Most Recent values listed first.
   **   ~~~   ** Demand-to-Supply interface energy check value iteration history trace: 3910.876617,3910.876618,3910.876618,3910.876618,3910.876618,3910.876618,3910.876619,3910.876619,3910.876619,3910.876619,
   **   ~~~   ** Supply-to-demand interface deck 1 energy check value iteration history trace: 1785.319741,1785.319741,1785.319741,1785.319741,1785.319741,1785.319741,1785.319741,1785.319741,1785.319741,1785.319742,
   ** Warning ** SimHVAC: Maximum iterations (20) exceeded for all HVAC loops, at ANNUAL, 10/22 10:15 - 10:20
   **   ~~~   ** The solution for one or more of the Air Loop HVAC systems did not appear to converge
   **   ~~~   ** Air System Named = CENTRAL SYSTEM did not converge for mass flow rate
   **   ~~~   ** Check values should be zero. Most Recent values listed first.
   **   ~~~   ** Demand-to-Supply interface mass flow rate check value iteration history trace: 7.098832E-002,7.098832E-002,7.098832E-002,7.098832E-002,7.098832E-002,7.098832E-002,7.098832E-002,7.098832E-002,7.098832E-002,7.098832E-002,
   **   ~~~   ** Supply-to-demand interface deck 1 mass flow rate check value iteration history trace: 7.098832E-002,7.098832E-002,7.098832E-002,7.098832E-002,7.098832E-002,7.098832E-002,7.098832E-002,7.098832E-002,7.098832E-002,7.098832E-002,
   **   ~~~   ** Air System Named = CENTRAL SYSTEM did not converge for energy
   **   ~~~   ** Check values should be zero. Most Recent values listed first.
   **   ~~~   ** Demand-to-Supply interface energy check value iteration history trace: 1406.716071,1406.716071,1406.716071,1406.716071,1406.716071,1406.716071,1406.716071,1406.716071,1406.716071,1406.716071,
   **   ~~~   ** Supply-to-demand interface deck 1 energy check value iteration history trace: 2363.914558,2363.914558,2363.914558,2363.914558,2363.914558,2363.914558,2363.914558,2363.914557,2363.914557,2363.914557,
   ** Warning ** SimHVAC: Maximum iterations (20) exceeded for all HVAC loops, at ANNUAL, 11/01 08:15 - 08:30
   **   ~~~   ** The solution for one or more of the Air Loop HVAC systems did not appear to converge
   **   ~~~   ** Air System Named = CENTRAL SYSTEM did not converge for mass flow rate
   **   ~~~   ** Check values should be zero. Most Recent values listed first.
   **   ~~~   ** Demand-to-Supply interface mass flow rate check value iteration history trace: 9.034564E-002,9.034564E-002,9.034564E-002,9.034564E-002,9.034564E-002,9.034564E-002,9.034564E-002,9.034564E-002,9.034564E-002,9.034564E-002,
   **   ~~~   ** Supply-to-demand interface deck 1 mass flow rate check value iteration history trace: 9.034564E-002,9.034564E-002,9.034564E-002,9.034564E-002,9.034564E-002,9.034564E-002,9.034564E-002,9.034564E-002,9.034564E-002,9.034564E-002,
   **   ~~~   ** Air System Named = CENTRAL SYSTEM did not converge for energy
   **   ~~~   ** Check values should be zero. Most Recent values listed first.
   **   ~~~   ** Demand-to-Supply interface energy check value iteration history trace: 1789.997884,1789.997884,1789.997884,1789.997884,1789.997883,1789.997883,1789.997883,1789.997883,1789.997883,1789.997883,
   **   ~~~   ** Supply-to-demand interface deck 1 energy check value iteration history trace: 2709.425832,2709.425832,2709.425831,2709.425831,2709.425831,2709.425831,2709.425831,2709.425830,2709.425830,2709.425830,
   ************* Simulation Error Summary *************
   ** Warning ** The following Report Variables were requested but not generated -- check.rdd file
   **   ~~~   ** Either the IDF did not contain these elements, the variable name is misspelled,
   **   ~~~   ** or the requested variable is an advanced output which requires Output : Diagnostics, DisplayAdvancedReportVariables;
   ************* Key=*, VarName=BASEBOARD TOTAL HEATING ENERGY, Frequency=
   ************* Key=*, VarName=WATER HEATER NATURALGAS ENERGY, Frequency=
   ************* Key=*, VarName=COOLING COIL TOTAL HEATING ENERGY, Frequency=
   ************* There are 34 unused schedules in input.
   ************* There are 388 unused week schedules in input.
   ************* There are 396 unused day schedules in input.
   ************* Use Output:Diagnostics,DisplayUnusedSchedules; to see them.
   *************
   ************* ===== Recurring Error Summary =====
   ************* The following recurring error messages occurred.
   *************
   *************  ** Warning ** "TOTAL HOT WATER LOAD" - Target water temperature should be less than or equal to the hot water temperature error continues...
   *************  **   ~~~   **   This error occurred 140507 total times;
   *************  **   ~~~   **   during Warmup 0 times;
   *************  **   ~~~   **   during Sizing 0 times.
   *************  **   ~~~   **   Max=9.860409  Min=5.561400E-004
   *************
   *************  ** Warning ** SimHVAC: Exceeding Maximum iterations for all HVAC loops, during ANNUAL continues
   *************  **   ~~~   **   This error occurred 1 total times;
   *************  **   ~~~   **   during Warmup 0 times;
   *************  **   ~~~   **   during Sizing 0 times.
   *************
   *************
   ************* ===== Final Error Summary =====
   ************* The following error categories occurred.  Consider correcting or noting.
   ************* Nominally Unused Constructions
   ************* ..The nominally unused constructions warning is provided to alert you to potential conditions that can cause
   ************* ..extra time during simulation. Each construction is calculated by the algorithm indicated in the HeatBalanceAlgorithm
   ************* ..object. You may remove the constructions indicated (when you use the DisplayExtraWarnings option).
   *************
   ************* EnergyPlus Warmup Error Summary. During Warmup: 1 Warning; 0 Severe Errors.
   ************* EnergyPlus Sizing Error Summary. During Sizing: 4 Warning; 0 Severe Errors.
   ************* EnergyPlus Completed Successfully-- 140540 Warning; 0 Severe Errors; Elapsed Time=00hr 01min 43.14sec
