Program Version,EnergyPlus, Version 22.2.0-c249759bad, YMD=2023.09.01 20:04,
   ************* Beginning Zone Sizing Calculations
   ** Warning ** ProcessScheduleInput: Schedule:Constant="ALWAYS ON DISCRETE", Schedule Type Limits Name="ONOFF" not found -- will not be validated
   ** Warning ** Foundation:Kiva="KIVA FOUNDATION", no Interior Horizontal Insulation Material Name defined
   **   ~~~   ** Interior Horizontal Insulation Depth will not be used.
   ** Warning ** CheckUsedConstructions: There are 15 nominally unused constructions in input.
   **   ~~~   ** Each Unused construction is shown.
   ************* Construction=INTERIOR FLOOR
   ************* Construction=INTERIOR WINDOW
   ************* Construction=EXTERIOR DOOR
   ************* Construction=INTERIOR DOOR
   ************* Construction=GABLE CONSTRUCTION
   ************* Construction=CRAWL_FLOOR
   ************* Construction=INSULATED PIPE
   ************* Construction=PLAIN PIPE
   ************* Construction=TDD PIPE
   ************* Construction=TDD DOME
   ************* Construction=TDD DIFFUSER
   ************* Construction=CRAWL WALL
   ************* Construction=CEILING-FLOOR-LAYER
   ************* Construction=SLAB CONSTRUCTION W FULL R10 INSULATION
   ************* Construction=SLAB CONSTRUCTION W FULL R5 INSULATION
   ** Warning ** GetDXCoils: Coil:Heating:DX:SingleSpeed="DX_HEATING_COIL" curve values
   **   ~~~   ** ... Defrost Energy Input Ratio Function of Temperature Curve Name = DEFROSTEIR output is not equal to 1.0 (+ or - 10%) at rated conditions.
   **   ~~~   ** ... Curve output at rated conditions = 0.152
   ************* Beginning System Sizing Calculations
   ************* Beginning Plant Sizing Calculations
   ** Warning ** SizeDXCoil Coil:Cooling:DX:SingleSpeed DX_COOLING_COIL
   **   ~~~   ** ...Gross Rated Total Cooling Capacity [W] will be limited by the maximum rated volume flow per rated total capacity ratio.
   **   ~~~   ** ...DX coil volume flow rate ( m3/s ) = 0.429065
   **   ~~~   ** ...Requested capacity ( W ) = 6776.336
   **   ~~~   ** ...Requested flow/capacity ratio ( m3/s/W ) = 6.331E-005
   **   ~~~   ** ...Maximum flow/capacity ratio ( m3/s/W ) = 6.041E-005
   **   ~~~   ** ...Adjusted capacity ( W ) = 7102.563
   ** Warning ** Coil:WaterHeating:AirToWaterHeatPump:Wrapped "HEAT PUMP WATER HEATER EVAPORATOR": Rated air volume flow rate per watt of rated total water heating capacity is out of range
   **   ~~~   ** Min Rated Vol Flow Per Watt=[4.027E-005], Rated Vol Flow Per Watt=[1.510E-004], Max Rated Vol Flow Per Watt=[8.056E-005]. See Input-Output Reference Manual for valid range.
   ************* SizeFan: : Potential issue with equipment sizing for Fan:OnOff HEAT PUMP WATER HEATER FAN
   **   ~~~   ** User-Specified Maximum Flow Rate [m3/s] = 0.22653
   **   ~~~   ** differs from Design Size Maximum Flow Rate [m3/s] = 7.55250E-002
   **   ~~~   ** This may, or may not, indicate mismatched component sizes.
   **   ~~~   ** Verify that the value entered is intended and is consistent with other components.
   ** Warning ** Water heater = WATER HEATER TANK:  Recovery Efficiency and Energy Factor could not be calculated during the test for standard ratings
   **   ~~~   ** Setpoint was never recovered and/or heater never turned on
   ** Warning ** Check input. Pump nominal power or motor efficiency is set to 0, for pump=MAINS PRESSURE
   ** Warning ** Output:Meter: invalid Key Name="ELECTRIC_RANGE:INTERIOREQUIPMENT:ELECTRICITY" - not found.
   ** Warning ** Output:Meter: invalid Key Name="ELECTRIC_DRYER:INTERIOREQUIPMENT:ELECTRICITY" - not found.
   ** Warning ** Output:Meter: invalid Key Name="HEATRECOVERY:ELECTRICITY" - not found.
   ** Warning ** Output:Meter: invalid Key Name="HEATING:NATURALGAS" - not found.
   ** Warning ** Output:Meter: invalid Key Name="WATERSYSTEMS:NATURALGAS" - not found.
   ** Warning ** Output:Meter: invalid Key Name="PROPANE:FACILITY" - not found.
   ** Warning ** Output:Meter: invalid Key Name="HEATING:PROPANE" - not found.
   ************* Testing Individual Branch Integrity
   ************* All Branches passed integrity testing
   ************* Testing Individual Supply Air Path Integrity
   ************* All Supply Air Paths passed integrity testing
   ************* Testing Individual Return Air Path Integrity
   ************* All Return Air Paths passed integrity testing
   ************* No node connection errors were found.
   ************* Beginning Simulation
   ** Warning ** AirflowNetwork::Solver::validate_distribution: Heat pump water heater is simulated along with an AirflowNetwork but is not included in the AirflowNetwork.
   ** Warning ** CalcEquipmentFlowRates: "TOTAL HOT WATER LOAD" - Target water temperature is greater than the hot water temperature by (3.74 C)
   **   ~~~   **  Environment=EXTREME_WINTER, at Simulation time=12/15 07:00 - 07:15
   **   ~~~   ** ...target water temperature     = 53.33 C
   **   ~~~   ** ...hot water temperature        = 49.60 C
   **   ~~~   ** ...Target water temperature should be less than or equal to the hot water temperature. Verify temperature setpoints and schedules.
   ** Warning ** SimHVAC: Maximum iterations (20) exceeded for all HVAC loops, at ANNUAL, 01/23 16:30 - 16:34
   **   ~~~   ** The solution for one or more of the Air Loop HVAC systems did not appear to converge
   **   ~~~   ** Air System Named = CENTRAL SYSTEM did not converge for mass flow rate
   **   ~~~   ** Check values should be zero. Most Recent values listed first.
   **   ~~~   ** Demand-to-Supply interface mass flow rate check value iteration history trace: 0.109849,0.109849,0.109849,0.109849,0.109849,0.109849,0.109849,0.109849,0.109849,0.109849,
   **   ~~~   ** Supply-to-demand interface deck 1 mass flow rate check value iteration history trace: 0.109849,0.109849,0.109849,0.109849,0.109849,0.109849,0.109849,0.109849,0.109849,0.109849,
   **   ~~~   ** Air System Named = CENTRAL SYSTEM did not converge for energy
   **   ~~~   ** Check values should be zero. Most Recent values listed first.
   **   ~~~   ** Demand-to-Supply interface energy check value iteration history trace: 2170.400660,2170.400659,2170.400659,2170.400659,2170.400659,2170.400659,2170.400659,2170.400658,2170.400658,2170.400658,
   **   ~~~   ** Supply-to-demand interface deck 1 energy check value iteration history trace: 3206.353796,3206.353796,3206.353796,3206.353796,3206.353795,3206.353795,3206.353795,3206.353795,3206.353794,3206.353794,
   ** Warning ** SimHVAC: Maximum iterations (20) exceeded for all HVAC loops, at ANNUAL, 01/23 16:50 - 16:55
   **   ~~~   ** The solution for one or more of the Air Loop HVAC systems did not appear to converge
   **   ~~~   ** Air System Named = CENTRAL SYSTEM did not converge for mass flow rate
   **   ~~~   ** Check values should be zero. Most Recent values listed first.
   **   ~~~   ** Demand-to-Supply interface mass flow rate check value iteration history trace: 0.106297,0.106297,0.106297,0.106297,0.106297,0.106297,0.106297,0.106297,0.106297,0.106297,
   **   ~~~   ** Supply-to-demand interface deck 1 mass flow rate check value iteration history trace: 0.106297,0.106297,0.106297,0.106297,0.106297,0.106297,0.106297,0.106297,0.106297,0.106297,
   **   ~~~   ** Air System Named = CENTRAL SYSTEM did not converge for energy
   **   ~~~   ** Check values should be zero. Most Recent values listed first.
   **   ~~~   ** Demand-to-Supply interface energy check value iteration history trace: 2105.223069,2105.223069,2105.223068,2105.223068,2105.223068,2105.223068,2105.223068,2105.223068,2105.223067,2105.223067,
   **   ~~~   ** Supply-to-demand interface deck 1 energy check value iteration history trace: 3094.526711,3094.526711,3094.526711,3094.526710,3094.526710,3094.526710,3094.526710,3094.526709,3094.526709,3094.526709,
   ** Warning ** SimHVAC: Maximum iterations (20) exceeded for all HVAC loops, at ANNUAL, 01/30 18:20 - 18:25
   **   ~~~   ** The solution for one or more of the Air Loop HVAC systems did not appear to converge
   **   ~~~   ** Air System Named = CENTRAL SYSTEM did not converge for mass flow rate
   **   ~~~   ** Check values should be zero. Most Recent values listed first.
   **   ~~~   ** Demand-to-Supply interface mass flow rate check value iteration history trace: 6.412524E-002,6.412524E-002,6.412524E-002,6.412524E-002,6.412524E-002,6.412524E-002,6.412524E-002,6.412524E-002,6.412524E-002,6.412524E-002,
   **   ~~~   ** Supply-to-demand interface deck 1 mass flow rate check value iteration history trace: 6.412524E-002,6.412524E-002,6.412524E-002,6.412524E-002,6.412524E-002,6.412524E-002,6.412524E-002,6.412524E-002,6.412524E-002,6.412524E-002,
   **   ~~~   ** Air System Named = CENTRAL SYSTEM did not converge for energy
   **   ~~~   ** Check values should be zero. Most Recent values listed first.
   **   ~~~   ** Demand-to-Supply interface energy check value iteration history trace: 1263.080775,1263.080775,1263.080775,1263.080775,1263.080775,1263.080775,1263.080775,1263.080775,1263.080775,1263.080775,
   **   ~~~   ** Supply-to-demand interface deck 1 energy check value iteration history trace: 2127.031960,2127.031960,2127.031960,2127.031960,2127.031960,2127.031960,2127.031960,2127.031960,2127.031960,2127.031959,
   ** Warning ** SimHVAC: Maximum iterations (20) exceeded for all HVAC loops, at ANNUAL, 02/01 10:40 - 10:45
   **   ~~~   ** The solution for one or more of the Air Loop HVAC systems did not appear to converge
   **   ~~~   ** Air System Named = CENTRAL SYSTEM did not converge for mass flow rate
   **   ~~~   ** Check values should be zero. Most Recent values listed first.
   **   ~~~   ** Demand-to-Supply interface mass flow rate check value iteration history trace: 9.618470E-002,9.618470E-002,9.618470E-002,9.618470E-002,9.618470E-002,9.618470E-002,9.618470E-002,9.618470E-002,9.618470E-002,9.618470E-002,
   **   ~~~   ** Supply-to-demand interface deck 1 mass flow rate check value iteration history trace: 9.618470E-002,9.618470E-002,9.618470E-002,9.618470E-002,9.618470E-002,9.618470E-002,9.618470E-002,9.618470E-002,9.618470E-002,9.618470E-002,
   **   ~~~   ** Air System Named = CENTRAL SYSTEM did not converge for energy
   **   ~~~   ** Check values should be zero. Most Recent values listed first.
   **   ~~~   ** Demand-to-Supply interface energy check value iteration history trace: 1905.915155,1905.915155,1905.915155,1905.915155,1905.915155,1905.915155,1905.915155,1905.915155,1905.915154,1905.915154,
   **   ~~~   ** Supply-to-demand interface deck 1 energy check value iteration history trace: 2997.567301,2997.567301,2997.567301,2997.567301,2997.567301,2997.567300,2997.567300,2997.567300,2997.567300,2997.567300,
   ** Warning ** SimHVAC: Maximum iterations (20) exceeded for all HVAC loops, at ANNUAL, 03/15 09:30 - 09:32
   **   ~~~   ** The solution for one or more of the Air Loop HVAC systems did not appear to converge
   **   ~~~   ** Air System Named = CENTRAL SYSTEM did not converge for mass flow rate
   **   ~~~   ** Check values should be zero. Most Recent values listed first.
   **   ~~~   ** Demand-to-Supply interface mass flow rate check value iteration history trace: 8.356395E-002,8.356395E-002,8.356395E-002,8.356395E-002,8.356395E-002,8.356395E-002,8.356395E-002,8.356395E-002,8.356395E-002,8.356395E-002,
   **   ~~~   ** Supply-to-demand interface deck 1 mass flow rate check value iteration history trace: 8.356395E-002,8.356395E-002,8.356395E-002,8.356395E-002,8.356395E-002,8.356395E-002,8.356395E-002,8.356395E-002,8.356395E-002,8.356395E-002,
   **   ~~~   ** Air System Named = CENTRAL SYSTEM did not converge for energy
   **   ~~~   ** Check values should be zero. Most Recent values listed first.
   **   ~~~   ** Demand-to-Supply interface energy check value iteration history trace: 1653.499305,1653.499305,1653.499305,1653.499305,1653.499305,1653.499305,1653.499305,1653.499305,1653.499305,1653.499305,
   **   ~~~   ** Supply-to-demand interface deck 1 energy check value iteration history trace: 2820.048703,2820.048702,2820.048702,2820.048702,2820.048702,2820.048702,2820.048702,2820.048702,2820.048702,2820.048702,
   ** Warning ** SimHVAC: Maximum iterations (20) exceeded for all HVAC loops, at ANNUAL, 03/21 14:00 - 14:08
   **   ~~~   ** The solution for one or more of the Air Loop HVAC systems did not appear to converge
   **   ~~~   ** Air System Named = CENTRAL SYSTEM did not converge for mass flow rate
   **   ~~~   ** Check values should be zero. Most Recent values listed first.
   **   ~~~   ** Demand-to-Supply interface mass flow rate check value iteration history trace: 6.445464E-002,6.445464E-002,6.445464E-002,6.445464E-002,6.445464E-002,6.445464E-002,6.445464E-002,6.445464E-002,6.445464E-002,6.445464E-002,
   **   ~~~   ** Supply-to-demand interface deck 1 mass flow rate check value iteration history trace: 6.445464E-002,6.445464E-002,6.445464E-002,6.445464E-002,6.445464E-002,6.445464E-002,6.445464E-002,6.445464E-002,6.445464E-002,6.445464E-002,
   **   ~~~   ** Air System Named = CENTRAL SYSTEM did not converge for energy
   **   ~~~   ** Check values should be zero. Most Recent values listed first.
   **   ~~~   ** Demand-to-Supply interface energy check value iteration history trace: 1277.306327,1277.306327,1277.306327,1277.306327,1277.306327,1277.306326,1277.306326,1277.306326,1277.306326,1277.306326,
   **   ~~~   ** Supply-to-demand interface deck 1 energy check value iteration history trace: 2164.963603,2164.963603,2164.963603,2164.963603,2164.963603,2164.963603,2164.963603,2164.963603,2164.963602,2164.963602,
   ** Warning ** SimHVAC: Maximum iterations (20) exceeded for all HVAC loops, at ANNUAL, 03/21 19:09 - 19:12
   **   ~~~   ** The solution for one or more of the Air Loop HVAC systems did not appear to converge
   **   ~~~   ** Air System Named = CENTRAL SYSTEM did not converge for mass flow rate
   **   ~~~   ** Check values should be zero. Most Recent values listed first.
   **   ~~~   ** Demand-to-Supply interface mass flow rate check value iteration history trace: 0.103489,0.103489,0.103489,0.103489,0.103489,0.103489,0.103489,0.103489,0.103489,0.103489,
   **   ~~~   ** Supply-to-demand interface deck 1 mass flow rate check value iteration history trace: 0.103489,0.103489,0.103489,0.103489,0.103489,0.103489,0.103489,0.103489,0.103489,0.103489,
   **   ~~~   ** Air System Named = CENTRAL SYSTEM did not converge for energy
   **   ~~~   ** Check values should be zero. Most Recent values listed first.
   **   ~~~   ** Demand-to-Supply interface energy check value iteration history trace: 2037.709595,2037.709595,2037.709595,2037.709595,2037.709595,2037.709595,2037.709595,2037.709594,2037.709594,2037.709594,
   **   ~~~   ** Supply-to-demand interface deck 1 energy check value iteration history trace: 3160.261575,3160.261575,3160.261575,3160.261575,3160.261575,3160.261574,3160.261574,3160.261574,3160.261574,3160.261574,
   ** Warning ** SimHVAC: Maximum iterations (20) exceeded for all HVAC loops, at ANNUAL, 03/21 20:23 - 20:30
   **   ~~~   ** The solution for one or more of the Air Loop HVAC systems did not appear to converge
   **   ~~~   ** Air System Named = CENTRAL SYSTEM did not converge for mass flow rate
   **   ~~~   ** Check values should be zero. Most Recent values listed first.
   **   ~~~   ** Demand-to-Supply interface mass flow rate check value iteration history trace: 0.102699,0.102699,0.102699,0.102699,0.102699,0.102699,0.102699,0.102699,0.102699,0.102699,
   **   ~~~   ** Supply-to-demand interface deck 1 mass flow rate check value iteration history trace: 0.102699,0.102699,0.102699,0.102699,0.102699,0.102699,0.102699,0.102699,0.102699,0.102699,
   **   ~~~   ** Air System Named = CENTRAL SYSTEM did not converge for energy
   **   ~~~   ** Check values should be zero. Most Recent values listed first.
   **   ~~~   ** Demand-to-Supply interface energy check value iteration history trace: 2023.568271,2023.568271,2023.568271,2023.568271,2023.568271,2023.568270,2023.568270,2023.568270,2023.568270,2023.568270,
   **   ~~~   ** Supply-to-demand interface deck 1 energy check value iteration history trace: 3104.360146,3104.360146,3104.360145,3104.360145,3104.360145,3104.360145,3104.360145,3104.360144,3104.360144,3104.360144,
   ** Warning ** SimHVAC: Maximum iterations (20) exceeded for all HVAC loops, at ANNUAL, 03/27 08:30 - 08:45
   **   ~~~   ** The solution for one or more of the Air Loop HVAC systems did not appear to converge
   **   ~~~   ** Air System Named = CENTRAL SYSTEM did not converge for mass flow rate
   **   ~~~   ** Check values should be zero. Most Recent values listed first.
   **   ~~~   ** Demand-to-Supply interface mass flow rate check value iteration history trace: 6.948496E-002,6.948496E-002,6.948496E-002,6.948496E-002,6.948496E-002,6.948496E-002,6.948496E-002,6.948496E-002,6.948496E-002,6.948496E-002,
   **   ~~~   ** Supply-to-demand interface deck 1 mass flow rate check value iteration history trace: 6.948496E-002,6.948496E-002,6.948496E-002,6.948496E-002,6.948496E-002,6.948496E-002,6.948496E-002,6.948496E-002,6.948496E-002,6.948496E-002,
   **   ~~~   ** Air System Named = CENTRAL SYSTEM did not converge for energy
   **   ~~~   ** Check values should be zero. Most Recent values listed first.
   **   ~~~   ** Demand-to-Supply interface energy check value iteration history trace: 1376.986833,1376.986833,1376.986833,1376.986833,1376.986833,1376.986833,1376.986833,1376.986833,1376.986833,1376.986833,
   **   ~~~   ** Supply-to-demand interface deck 1 energy check value iteration history trace: 2438.122473,2438.122473,2438.122473,2438.122473,2438.122473,2438.122473,2438.122473,2438.122473,2438.122473,2438.122473,
   ** Warning ** SimHVAC: Maximum iterations (20) exceeded for all HVAC loops, at ANNUAL, 03/27 09:17 - 09:20
   **   ~~~   ** The solution for one or more of the Air Loop HVAC systems did not appear to converge
   **   ~~~   ** Air System Named = CENTRAL SYSTEM did not converge for mass flow rate
   **   ~~~   ** Check values should be zero. Most Recent values listed first.
   **   ~~~   ** Demand-to-Supply interface mass flow rate check value iteration history trace: 6.977684E-002,6.977684E-002,6.977684E-002,6.977684E-002,6.977684E-002,6.977684E-002,6.977684E-002,6.977684E-002,6.977684E-002,6.977684E-002,
   **   ~~~   ** Supply-to-demand interface deck 1 mass flow rate check value iteration history trace: 6.977684E-002,6.977684E-002,6.977684E-002,6.977684E-002,6.977684E-002,6.977684E-002,6.977684E-002,6.977684E-002,6.977684E-002,6.977684E-002,
   **   ~~~   ** Air System Named = CENTRAL SYSTEM did not converge for energy
   **   ~~~   ** Check values should be zero. Most Recent values listed first.
   **   ~~~   ** Demand-to-Supply interface energy check value iteration history trace: 1380.752291,1380.752291,1380.752291,1380.752291,1380.752291,1380.752291,1380.752290,1380.752290,1380.752290,1380.752290,
   **   ~~~   ** Supply-to-demand interface deck 1 energy check value iteration history trace: 2481.279814,2481.279814,2481.279814,2481.279814,2481.279814,2481.279814,2481.279814,2481.279814,2481.279814,2481.279814,
   ** Warning ** SimHVAC: Maximum iterations (20) exceeded for all HVAC loops, at ANNUAL, 03/30 11:15 - 11:30
   **   ~~~   ** The solution for one or more of the Air Loop HVAC systems did not appear to converge
   **   ~~~   ** Air System Named = CENTRAL SYSTEM did not converge for mass flow rate
   **   ~~~   ** Check values should be zero. Most Recent values listed first.
   **   ~~~   ** Demand-to-Supply interface mass flow rate check value iteration history trace: 9.350485E-002,9.350485E-002,9.350485E-002,9.350485E-002,9.350485E-002,9.350485E-002,9.350485E-002,9.350485E-002,9.350485E-002,9.350485E-002,
   **   ~~~   ** Supply-to-demand interface deck 1 mass flow rate check value iteration history trace: 9.350485E-002,9.350485E-002,9.350485E-002,9.350485E-002,9.350485E-002,9.350485E-002,9.350485E-002,9.350485E-002,9.350485E-002,9.350485E-002,
   **   ~~~   ** Air System Named = CENTRAL SYSTEM did not converge for energy
   **   ~~~   ** Check values should be zero. Most Recent values listed first.
   **   ~~~   ** Demand-to-Supply interface energy check value iteration history trace: 1852.978015,1852.978015,1852.978015,1852.978015,1852.978015,1852.978015,1852.978014,1852.978014,1852.978014,1852.978014,
   **   ~~~   ** Supply-to-demand interface deck 1 energy check value iteration history trace: 2891.589893,2891.589893,2891.589893,2891.589892,2891.589892,2891.589892,2891.589892,2891.589892,2891.589891,2891.589891,
   ** Warning ** SimHVAC: Maximum iterations (20) exceeded for all HVAC loops, at ANNUAL, 04/08 08:34 - 08:38
   **   ~~~   ** The solution for one or more of the Air Loop HVAC systems did not appear to converge
   **   ~~~   ** Air System Named = CENTRAL SYSTEM did not converge for mass flow rate
   **   ~~~   ** Check values should be zero. Most Recent values listed first.
   **   ~~~   ** Demand-to-Supply interface mass flow rate check value iteration history trace: 7.133610E-002,7.133610E-002,7.133610E-002,7.133610E-002,7.133610E-002,7.133610E-002,7.133610E-002,7.133610E-002,7.133610E-002,7.133610E-002,
   **   ~~~   ** Supply-to-demand interface deck 1 mass flow rate check value iteration history trace: 7.133610E-002,7.133610E-002,7.133610E-002,7.133610E-002,7.133610E-002,7.133610E-002,7.133610E-002,7.133610E-002,7.133610E-002,7.133610E-002,
   **   ~~~   ** Air System Named = CENTRAL SYSTEM did not converge for energy
   **   ~~~   ** Check values should be zero. Most Recent values listed first.
   **   ~~~   ** Demand-to-Supply interface energy check value iteration history trace: 1413.589698,1413.589697,1413.589697,1413.589697,1413.589697,1413.589697,1413.589697,1413.589697,1413.589697,1413.589697,
   **   ~~~   ** Supply-to-demand interface deck 1 energy check value iteration history trace: 2449.184043,2449.184043,2449.184042,2449.184042,2449.184042,2449.184042,2449.184042,2449.184042,2449.184042,2449.184042,
   ** Warning ** SimHVAC: Maximum iterations (20) exceeded for all HVAC loops, at ANNUAL, 06/01 22:23 - 22:30
   **   ~~~   ** The solution for one or more of the Air Loop HVAC systems did not appear to converge
   **   ~~~   ** Air System Named = CENTRAL SYSTEM did not converge for energy
   **   ~~~   ** Check values should be zero. Most Recent values listed first.
   **   ~~~   ** Demand-to-Supply interface energy check value iteration history trace: 115.761701,115.761701,115.761701,115.761701,115.761701,115.761701,115.761701,115.761701,115.761701,115.761701,
   **   ~~~   ** Supply-to-demand interface deck 1 energy check value iteration history trace: 51.895394,51.895394,51.895394,51.895394,51.895394,51.895394,51.895394,51.895394,51.895394,51.895394,
   ** Warning ** SimHVAC: Maximum iterations (20) exceeded for all HVAC loops, at ANNUAL, 06/02 07:05 - 07:10
   **   ~~~   ** The solution for one or more of the Air Loop HVAC systems did not appear to converge
   **   ~~~   ** Air System Named = CENTRAL SYSTEM did not converge for mass flow rate
   **   ~~~   ** Check values should be zero. Most Recent values listed first.
   **   ~~~   ** Demand-to-Supply interface mass flow rate check value iteration history trace: 0.182711,0.182711,0.182711,0.182711,0.182711,0.182711,0.182711,0.182711,0.182711,0.182711,
   **   ~~~   ** Supply-to-demand interface deck 1 mass flow rate check value iteration history trace: 0.182711,0.182711,0.182711,0.182711,0.182711,0.182711,0.182711,0.182711,0.182711,0.182711,
   **   ~~~   ** Air System Named = CENTRAL SYSTEM did not converge for energy
   **   ~~~   ** Check values should be zero. Most Recent values listed first.
   **   ~~~   ** Demand-to-Supply interface energy check value iteration history trace: 4326.582014,4326.582014,4326.582014,4326.582015,4326.582015,4326.582015,4326.582016,4326.582016,4326.582016,4326.582017,
   **   ~~~   ** Supply-to-demand interface deck 1 energy check value iteration history trace: 2063.263251,2063.263251,2063.263251,2063.263251,2063.263252,2063.263252,2063.263252,2063.263252,2063.263252,2063.263252,
   ************* Simulation Error Summary *************
   ** Warning ** The following Report Variables were requested but not generated -- check.rdd file
   **   ~~~   ** Either the IDF did not contain these elements, the variable name is misspelled,
   **   ~~~   ** or the requested variable is an advanced output which requires Output : Diagnostics, DisplayAdvancedReportVariables;
   ************* Key=*, VarName=BASEBOARD TOTAL HEATING ENERGY, Frequency=
   ************* Key=*, VarName=WATER HEATER NATURALGAS ENERGY, Frequency=
   ************* Key=*, VarName=COOLING COIL TOTAL HEATING ENERGY, Frequency=
   ************* There are 34 unused schedules in input.
   ************* There are 388 unused week schedules in input.
   ************* There are 396 unused day schedules in input.
   ************* Use Output:Diagnostics,DisplayUnusedSchedules; to see them.
   *************
   ************* ===== Recurring Error Summary =====
   ************* The following recurring error messages occurred.
   *************
   *************  ** Warning ** "TOTAL HOT WATER LOAD" - Target water temperature should be less than or equal to the hot water temperature error continues...
   *************  **   ~~~   **   This error occurred 145243 total times;
   *************  **   ~~~   **   during Warmup 0 times;
   *************  **   ~~~   **   during Sizing 0 times.
   *************  **   ~~~   **   Max=13.384324  Min=5.822278E-004
   *************
   *************  ** Warning ** SimHVAC: Exceeding Maximum iterations for all HVAC loops, during ANNUAL continues
   *************  **   ~~~   **   This error occurred 8 total times;
   *************  **   ~~~   **   during Warmup 0 times;
   *************  **   ~~~   **   during Sizing 0 times.
   *************
   *************
   ************* ===== Final Error Summary =====
   ************* The following error categories occurred.  Consider correcting or noting.
   ************* Nominally Unused Constructions
   ************* ..The nominally unused constructions warning is provided to alert you to potential conditions that can cause
   ************* ..extra time during simulation. Each construction is calculated by the algorithm indicated in the HeatBalanceAlgorithm
   ************* ..object. You may remove the constructions indicated (when you use the DisplayExtraWarnings option).
   *************
   ************* EnergyPlus Warmup Error Summary. During Warmup: 1 Warning; 0 Severe Errors.
   ************* EnergyPlus Sizing Error Summary. During Sizing: 4 Warning; 0 Severe Errors.
   ************* EnergyPlus Completed Successfully-- 145283 Warning; 0 Severe Errors; Elapsed Time=00hr 01min 33.31sec
