Program Version,EnergyPlus, Version 22.2.0-c249759bad, YMD=2023.09.01 19:18,
   ************* Beginning Zone Sizing Calculations
   ** Warning ** ProcessScheduleInput: Schedule:Constant="ALWAYS ON DISCRETE", Schedule Type Limits Name="ONOFF" not found -- will not be validated
   ** Warning ** Foundation:Kiva="KIVA FOUNDATION", no Interior Horizontal Insulation Material Name defined
   **   ~~~   ** Interior Horizontal Insulation Depth will not be used.
   ** Warning ** CheckUsedConstructions: There are 15 nominally unused constructions in input.
   **   ~~~   ** Each Unused construction is shown.
   ************* Construction=INTERIOR FLOOR
   ************* Construction=INTERIOR WINDOW
   ************* Construction=EXTERIOR DOOR
   ************* Construction=INTERIOR DOOR
   ************* Construction=GABLE CONSTRUCTION
   ************* Construction=CRAWL_FLOOR
   ************* Construction=INSULATED PIPE
   ************* Construction=PLAIN PIPE
   ************* Construction=TDD PIPE
   ************* Construction=TDD DOME
   ************* Construction=TDD DIFFUSER
   ************* Construction=CRAWL WALL
   ************* Construction=CEILING-FLOOR-LAYER
   ************* Construction=SLAB CONSTRUCTION W FULL R10 INSULATION
   ************* Construction=SLAB CONSTRUCTION W FULL R5 INSULATION
   ** Warning ** GetDXCoils: Coil:Heating:DX:SingleSpeed="DX_HEATING_COIL" curve values
   **   ~~~   ** ... Defrost Energy Input Ratio Function of Temperature Curve Name = DEFROSTEIR output is not equal to 1.0 (+ or - 10%) at rated conditions.
   **   ~~~   ** ... Curve output at rated conditions = 0.152
   ************* Beginning System Sizing Calculations
   ************* Beginning Plant Sizing Calculations
   ** Warning ** Coil:WaterHeating:AirToWaterHeatPump:Wrapped "HEAT PUMP WATER HEATER EVAPORATOR": Rated air volume flow rate per watt of rated total water heating capacity is out of range
   **   ~~~   ** Min Rated Vol Flow Per Watt=[4.027E-005], Rated Vol Flow Per Watt=[1.510E-004], Max Rated Vol Flow Per Watt=[8.056E-005]. See Input-Output Reference Manual for valid range.
   ************* SizeFan: : Potential issue with equipment sizing for Fan:OnOff HEAT PUMP WATER HEATER FAN
   **   ~~~   ** User-Specified Maximum Flow Rate [m3/s] = 0.22653
   **   ~~~   ** differs from Design Size Maximum Flow Rate [m3/s] = 7.55250E-002
   **   ~~~   ** This may, or may not, indicate mismatched component sizes.
   **   ~~~   ** Verify that the value entered is intended and is consistent with other components.
   ** Warning ** Water heater = WATER HEATER TANK:  Recovery Efficiency and Energy Factor could not be calculated during the test for standard ratings
   **   ~~~   ** Setpoint was never recovered and/or heater never turned on
   ** Warning ** Check input. Pump nominal power or motor efficiency is set to 0, for pump=MAINS PRESSURE
   ** Warning ** Output:Meter: invalid Key Name="ELECTRIC_RANGE:INTERIOREQUIPMENT:ELECTRICITY" - not found.
   ** Warning ** Output:Meter: invalid Key Name="ELECTRIC_DRYER:INTERIOREQUIPMENT:ELECTRICITY" - not found.
   ** Warning ** Output:Meter: invalid Key Name="HEATRECOVERY:ELECTRICITY" - not found.
   ** Warning ** Output:Meter: invalid Key Name="HEATING:NATURALGAS" - not found.
   ** Warning ** Output:Meter: invalid Key Name="WATERSYSTEMS:NATURALGAS" - not found.
   ** Warning ** Output:Meter: invalid Key Name="PROPANE:FACILITY" - not found.
   ** Warning ** Output:Meter: invalid Key Name="HEATING:PROPANE" - not found.
   ************* Testing Individual Branch Integrity
   ************* All Branches passed integrity testing
   ************* Testing Individual Supply Air Path Integrity
   ************* All Supply Air Paths passed integrity testing
   ************* Testing Individual Return Air Path Integrity
   ************* All Return Air Paths passed integrity testing
   ************* No node connection errors were found.
   ************* Beginning Simulation
   ** Warning ** AirflowNetwork::Solver::validate_distribution: Heat pump water heater is simulated along with an AirflowNetwork but is not included in the AirflowNetwork.
   ** Warning ** CalcEquipmentFlowRates: "TOTAL HOT WATER LOAD" - Target water temperature is greater than the hot water temperature by (0.86 C)
   **   ~~~   **  Environment=EXTREME_WINTER, at Simulation time=01/20 06:45 - 07:00
   **   ~~~   ** ...target water temperature     = 53.33 C
   **   ~~~   ** ...hot water temperature        = 52.47 C
   **   ~~~   ** ...Target water temperature should be less than or equal to the hot water temperature. Verify temperature setpoints and schedules.
   ** Warning ** SimHVAC: Maximum iterations (20) exceeded for all HVAC loops, at ANNUAL, 01/06 14:15 - 14:19
   **   ~~~   ** The solution for one or more of the Air Loop HVAC systems did not appear to converge
   **   ~~~   ** Air System Named = CENTRAL SYSTEM did not converge for mass flow rate
   **   ~~~   ** Check values should be zero. Most Recent values listed first.
   **   ~~~   ** Demand-to-Supply interface mass flow rate check value iteration history trace: 6.617292E-002,6.617292E-002,6.617292E-002,6.617292E-002,6.617292E-002,6.617292E-002,6.617292E-002,6.617292E-002,6.617292E-002,6.617292E-002,
   **   ~~~   ** Supply-to-demand interface deck 1 mass flow rate check value iteration history trace: 6.617292E-002,6.617292E-002,6.617292E-002,6.617292E-002,6.617292E-002,6.617292E-002,6.617292E-002,6.617292E-002,6.617292E-002,6.617292E-002,
   **   ~~~   ** Air System Named = CENTRAL SYSTEM did not converge for energy
   **   ~~~   ** Check values should be zero. Most Recent values listed first.
   **   ~~~   ** Demand-to-Supply interface energy check value iteration history trace: 1311.364016,1311.364016,1311.364016,1311.364016,1311.364016,1311.364016,1311.364016,1311.364016,1311.364016,1311.364016,
   **   ~~~   ** Supply-to-demand interface deck 1 energy check value iteration history trace: 2048.381006,2048.381006,2048.381005,2048.381005,2048.381005,2048.381005,2048.381005,2048.381005,2048.381005,2048.381004,
   ** Warning ** SimHVAC: Maximum iterations (20) exceeded for all HVAC loops, at ANNUAL, 02/10 22:15 - 22:20
   **   ~~~   ** The solution for one or more of the Air Loop HVAC systems did not appear to converge
   **   ~~~   ** Air System Named = CENTRAL SYSTEM did not converge for mass flow rate
   **   ~~~   ** Check values should be zero. Most Recent values listed first.
   **   ~~~   ** Demand-to-Supply interface mass flow rate check value iteration history trace: 6.602715E-002,6.602715E-002,6.602715E-002,6.602715E-002,6.602715E-002,6.602715E-002,6.602715E-002,6.602715E-002,6.602715E-002,6.602715E-002,
   **   ~~~   ** Supply-to-demand interface deck 1 mass flow rate check value iteration history trace: 6.602715E-002,6.602715E-002,6.602715E-002,6.602715E-002,6.602715E-002,6.602715E-002,6.602715E-002,6.602715E-002,6.602715E-002,6.602715E-002,
   **   ~~~   ** Air System Named = CENTRAL SYSTEM did not converge for energy
   **   ~~~   ** Check values should be zero. Most Recent values listed first.
   **   ~~~   ** Demand-to-Supply interface energy check value iteration history trace: 1245.876302,1245.876302,1245.876301,1245.876301,1245.876301,1245.876301,1245.876301,1245.876301,1245.876301,1245.876301,
   **   ~~~   ** Supply-to-demand interface deck 1 energy check value iteration history trace: 1993.968633,1993.968633,1993.968633,1993.968633,1993.968633,1993.968632,1993.968632,1993.968632,1993.968632,1993.968632,
   ** Warning ** SimHVAC: Maximum iterations (20) exceeded for all HVAC loops, at ANNUAL, 02/15 11:00 - 11:04
   **   ~~~   ** The solution for one or more of the Air Loop HVAC systems did not appear to converge
   **   ~~~   ** Air System Named = CENTRAL SYSTEM did not converge for mass flow rate
   **   ~~~   ** Check values should be zero. Most Recent values listed first.
   **   ~~~   ** Demand-to-Supply interface mass flow rate check value iteration history trace: 6.854262E-002,6.854262E-002,6.854262E-002,6.854262E-002,6.854262E-002,6.854262E-002,6.854262E-002,6.854262E-002,6.854262E-002,6.854262E-002,
   **   ~~~   ** Supply-to-demand interface deck 1 mass flow rate check value iteration history trace: 6.854262E-002,6.854262E-002,6.854262E-002,6.854262E-002,6.854262E-002,6.854262E-002,6.854262E-002,6.854262E-002,6.854262E-002,6.854262E-002,
   **   ~~~   ** Air System Named = CENTRAL SYSTEM did not converge for energy
   **   ~~~   ** Check values should be zero. Most Recent values listed first.
   **   ~~~   ** Demand-to-Supply interface energy check value iteration history trace: 1358.263170,1358.263170,1358.263170,1358.263170,1358.263169,1358.263169,1358.263169,1358.263169,1358.263169,1358.263169,
   **   ~~~   ** Supply-to-demand interface deck 1 energy check value iteration history trace: 2249.879125,2249.879125,2249.879125,2249.879125,2249.879125,2249.879124,2249.879124,2249.879124,2249.879124,2249.879124,
   ** Warning ** SimHVAC: Maximum iterations (20) exceeded for all HVAC loops, at ANNUAL, 03/05 14:15 - 14:30
   **   ~~~   ** The solution for one or more of the Air Loop HVAC systems did not appear to converge
   **   ~~~   ** Air System Named = CENTRAL SYSTEM did not converge for mass flow rate
   **   ~~~   ** Check values should be zero. Most Recent values listed first.
   **   ~~~   ** Demand-to-Supply interface mass flow rate check value iteration history trace: 7.999629E-002,7.999629E-002,7.999629E-002,7.999629E-002,7.999629E-002,7.999629E-002,7.999629E-002,7.999629E-002,7.999629E-002,7.999629E-002,
   **   ~~~   ** Supply-to-demand interface deck 1 mass flow rate check value iteration history trace: 7.999629E-002,7.999629E-002,7.999629E-002,7.999629E-002,7.999629E-002,7.999629E-002,7.999629E-002,7.999629E-002,7.999629E-002,7.999629E-002,
   **   ~~~   ** Air System Named = CENTRAL SYSTEM did not converge for energy
   **   ~~~   ** Check values should be zero. Most Recent values listed first.
   **   ~~~   ** Demand-to-Supply interface energy check value iteration history trace: 1585.187973,1585.187973,1585.187973,1585.187973,1585.187973,1585.187973,1585.187972,1585.187972,1585.187972,1585.187972,
   **   ~~~   ** Supply-to-demand interface deck 1 energy check value iteration history trace: 2555.723043,2555.723043,2555.723043,2555.723042,2555.723042,2555.723042,2555.723042,2555.723042,2555.723042,2555.723042,
   ** Warning ** SimHVAC: Maximum iterations (20) exceeded for all HVAC loops, at ANNUAL, 03/29 11:15 - 11:20
   **   ~~~   ** The solution for one or more of the Air Loop HVAC systems did not appear to converge
   **   ~~~   ** Air System Named = CENTRAL SYSTEM did not converge for mass flow rate
   **   ~~~   ** Check values should be zero. Most Recent values listed first.
   **   ~~~   ** Demand-to-Supply interface mass flow rate check value iteration history trace: 5.838937E-002,5.838937E-002,5.838937E-002,5.838937E-002,5.838937E-002,5.838937E-002,5.838937E-002,5.838937E-002,5.838937E-002,5.838937E-002,
   **   ~~~   ** Supply-to-demand interface deck 1 mass flow rate check value iteration history trace: 5.838937E-002,5.838937E-002,5.838937E-002,5.838937E-002,5.838937E-002,5.838937E-002,5.838937E-002,5.838937E-002,5.838937E-002,5.838937E-002,
   **   ~~~   ** Air System Named = CENTRAL SYSTEM did not converge for energy
   **   ~~~   ** Check values should be zero. Most Recent values listed first.
   **   ~~~   ** Demand-to-Supply interface energy check value iteration history trace: 1157.105353,1157.105353,1157.105353,1157.105353,1157.105353,1157.105353,1157.105353,1157.105353,1157.105353,1157.105353,
   **   ~~~   ** Supply-to-demand interface deck 1 energy check value iteration history trace: 1973.783271,1973.783271,1973.783271,1973.783270,1973.783270,1973.783270,1973.783270,1973.783270,1973.783270,1973.783270,
   ** Warning ** SimHVAC: Maximum iterations (20) exceeded for all HVAC loops, at ANNUAL, 04/06 09:24 - 09:26
   **   ~~~   ** The solution for one or more of the Air Loop HVAC systems did not appear to converge
   **   ~~~   ** Air System Named = CENTRAL SYSTEM did not converge for mass flow rate
   **   ~~~   ** Check values should be zero. Most Recent values listed first.
   **   ~~~   ** Demand-to-Supply interface mass flow rate check value iteration history trace: 6.459424E-002,6.459424E-002,6.459424E-002,6.459424E-002,6.459424E-002,6.459424E-002,6.459424E-002,6.459424E-002,6.459424E-002,6.459424E-002,
   **   ~~~   ** Supply-to-demand interface deck 1 mass flow rate check value iteration history trace: 6.459424E-002,6.459424E-002,6.459424E-002,6.459424E-002,6.459424E-002,6.459424E-002,6.459424E-002,6.459424E-002,6.459424E-002,6.459424E-002,
   **   ~~~   ** Air System Named = CENTRAL SYSTEM did not converge for energy
   **   ~~~   ** Check values should be zero. Most Recent values listed first.
   **   ~~~   ** Demand-to-Supply interface energy check value iteration history trace: 1278.668642,1278.668642,1278.668642,1278.668642,1278.668642,1278.668642,1278.668642,1278.668641,1278.668641,1278.668641,
   **   ~~~   ** Supply-to-demand interface deck 1 energy check value iteration history trace: 2397.153661,2397.153661,2397.153661,2397.153661,2397.153661,2397.153661,2397.153661,2397.153661,2397.153661,2397.153661,
   ** Warning ** SimHVAC: Maximum iterations (20) exceeded for all HVAC loops, at ANNUAL, 04/07 09:08 - 09:11
   **   ~~~   ** The solution for one or more of the Air Loop HVAC systems did not appear to converge
   **   ~~~   ** Air System Named = CENTRAL SYSTEM did not converge for mass flow rate
   **   ~~~   ** Check values should be zero. Most Recent values listed first.
   **   ~~~   ** Demand-to-Supply interface mass flow rate check value iteration history trace: 5.910122E-002,5.910122E-002,5.910122E-002,5.910122E-002,5.910122E-002,5.910122E-002,5.910122E-002,5.910122E-002,5.910122E-002,5.910122E-002,
   **   ~~~   ** Supply-to-demand interface deck 1 mass flow rate check value iteration history trace: 5.910122E-002,5.910122E-002,5.910122E-002,5.910122E-002,5.910122E-002,5.910122E-002,5.910122E-002,5.910122E-002,5.910122E-002,5.910122E-002,
   **   ~~~   ** Air System Named = CENTRAL SYSTEM did not converge for energy
   **   ~~~   ** Check values should be zero. Most Recent values listed first.
   **   ~~~   ** Demand-to-Supply interface energy check value iteration history trace: 1171.191661,1171.191661,1171.191661,1171.191661,1171.191661,1171.191661,1171.191661,1171.191661,1171.191661,1171.191661,
   **   ~~~   ** Supply-to-demand interface deck 1 energy check value iteration history trace: 2151.170696,2151.170696,2151.170696,2151.170695,2151.170695,2151.170695,2151.170695,2151.170695,2151.170695,2151.170695,
   ** Warning ** SimHVAC: Maximum iterations (20) exceeded for all HVAC loops, at ANNUAL, 04/07 09:54 - 09:57
   **   ~~~   ** The solution for one or more of the Air Loop HVAC systems did not appear to converge
   **   ~~~   ** Air System Named = CENTRAL SYSTEM did not converge for mass flow rate
   **   ~~~   ** Check values should be zero. Most Recent values listed first.
   **   ~~~   ** Demand-to-Supply interface mass flow rate check value iteration history trace: 5.210205E-002,5.210205E-002,5.210205E-002,5.210205E-002,5.210205E-002,5.210205E-002,5.210205E-002,5.210205E-002,5.210205E-002,5.210205E-002,
   **   ~~~   ** Supply-to-demand interface deck 1 mass flow rate check value iteration history trace: 5.210205E-002,5.210205E-002,5.210205E-002,5.210205E-002,5.210205E-002,5.210205E-002,5.210205E-002,5.210205E-002,5.210205E-002,5.210205E-002,
   **   ~~~   ** Air System Named = CENTRAL SYSTEM did not converge for energy
   **   ~~~   ** Check values should be zero. Most Recent values listed first.
   **   ~~~   ** Demand-to-Supply interface energy check value iteration history trace: 1027.877390,1027.877390,1027.877390,1027.877390,1027.877390,1027.877390,1027.877390,1027.877390,1027.877390,1027.877390,
   **   ~~~   ** Supply-to-demand interface deck 1 energy check value iteration history trace: 1940.696498,1940.696498,1940.696498,1940.696498,1940.696498,1940.696498,1940.696497,1940.696497,1940.696497,1940.696497,
   ** Warning ** SimHVAC: Maximum iterations (20) exceeded for all HVAC loops, at ANNUAL, 04/14 13:53 - 14:00
   **   ~~~   ** The solution for one or more of the Air Loop HVAC systems did not appear to converge
   **   ~~~   ** Air System Named = CENTRAL SYSTEM did not converge for mass flow rate
   **   ~~~   ** Check values should be zero. Most Recent values listed first.
   **   ~~~   ** Demand-to-Supply interface mass flow rate check value iteration history trace: 5.636366E-002,5.636366E-002,5.636366E-002,5.636366E-002,5.636366E-002,5.636366E-002,5.636366E-002,5.636366E-002,5.636366E-002,5.636366E-002,
   **   ~~~   ** Supply-to-demand interface deck 1 mass flow rate check value iteration history trace: 5.636366E-002,5.636366E-002,5.636366E-002,5.636366E-002,5.636366E-002,5.636366E-002,5.636366E-002,5.636366E-002,5.636366E-002,5.636366E-002,
   **   ~~~   ** Air System Named = CENTRAL SYSTEM did not converge for energy
   **   ~~~   ** Check values should be zero. Most Recent values listed first.
   **   ~~~   ** Demand-to-Supply interface energy check value iteration history trace: 1116.842198,1116.842198,1116.842198,1116.842198,1116.842198,1116.842198,1116.842198,1116.842198,1116.842198,1116.842198,
   **   ~~~   ** Supply-to-demand interface deck 1 energy check value iteration history trace: 1867.662168,1867.662168,1867.662168,1867.662168,1867.662168,1867.662168,1867.662168,1867.662168,1867.662168,1867.662168,
   ** Warning ** SimHVAC: Maximum iterations (20) exceeded for all HVAC loops, at ANNUAL, 05/17 04:45 - 04:52
   **   ~~~   ** The solution for one or more of the Air Loop HVAC systems did not appear to converge
   **   ~~~   ** Air System Named = CENTRAL SYSTEM did not converge for mass flow rate
   **   ~~~   ** Check values should be zero. Most Recent values listed first.
   **   ~~~   ** Demand-to-Supply interface mass flow rate check value iteration history trace: 4.621309E-002,4.621309E-002,4.621309E-002,4.621309E-002,4.621309E-002,4.621309E-002,4.621309E-002,4.621309E-002,4.621309E-002,4.621309E-002,
   **   ~~~   ** Supply-to-demand interface deck 1 mass flow rate check value iteration history trace: 4.621309E-002,4.621309E-002,4.621309E-002,4.621309E-002,4.621309E-002,4.621309E-002,4.621309E-002,4.621309E-002,4.621309E-002,4.621309E-002,
   **   ~~~   ** Air System Named = CENTRAL SYSTEM did not converge for energy
   **   ~~~   ** Check values should be zero. Most Recent values listed first.
   **   ~~~   ** Demand-to-Supply interface energy check value iteration history trace: 857.404583,857.404583,857.404583,857.404583,857.404583,857.404583,857.404583,857.404583,857.404583,857.404583,
   **   ~~~   ** Supply-to-demand interface deck 1 energy check value iteration history trace: 1425.625280,1425.625280,1425.625280,1425.625280,1425.625280,1425.625280,1425.625280,1425.625280,1425.625280,1425.625280,
   ** Warning ** SimHVAC: Maximum iterations (20) exceeded for all HVAC loops, at ANNUAL, 05/29 05:15 - 05:30
   **   ~~~   ** The solution for one or more of the Air Loop HVAC systems did not appear to converge
   **   ~~~   ** Air System Named = CENTRAL SYSTEM did not converge for mass flow rate
   **   ~~~   ** Check values should be zero. Most Recent values listed first.
   **   ~~~   ** Demand-to-Supply interface mass flow rate check value iteration history trace: 1.098568E-002,1.098568E-002,1.098568E-002,1.098568E-002,1.098568E-002,1.098568E-002,1.098568E-002,1.098568E-002,1.098568E-002,1.098568E-002,
   **   ~~~   ** Supply-to-demand interface deck 1 mass flow rate check value iteration history trace: 1.098568E-002,1.098568E-002,1.098568E-002,1.098568E-002,1.098568E-002,1.098568E-002,1.098568E-002,1.098568E-002,1.098568E-002,1.098568E-002,
   **   ~~~   ** Air System Named = CENTRAL SYSTEM did not converge for energy
   **   ~~~   ** Check values should be zero. Most Recent values listed first.
   **   ~~~   ** Demand-to-Supply interface energy check value iteration history trace: 254.731780,254.731780,254.731780,254.731780,254.731780,254.731780,254.731780,254.731780,254.731780,254.731780,
   **   ~~~   ** Supply-to-demand interface deck 1 energy check value iteration history trace: 104.991337,104.991337,104.991337,104.991337,104.991337,104.991337,104.991337,104.991337,104.991337,104.991337,
   ** Warning ** SimHVAC: Maximum iterations (20) exceeded for all HVAC loops, at ANNUAL, 05/30 00:38 - 00:45
   **   ~~~   ** The solution for one or more of the Air Loop HVAC systems did not appear to converge
   **   ~~~   ** Air System Named = CENTRAL SYSTEM did not converge for mass flow rate
   **   ~~~   ** Check values should be zero. Most Recent values listed first.
   **   ~~~   ** Demand-to-Supply interface mass flow rate check value iteration history trace: 0.119575,0.119575,0.119575,0.119575,0.119575,0.119575,0.119575,0.119575,0.119575,0.119575,
   **   ~~~   ** Supply-to-demand interface deck 1 mass flow rate check value iteration history trace: 0.119575,0.119575,0.119575,0.119575,0.119575,0.119575,0.119575,0.119575,0.119575,0.119575,
   **   ~~~   ** Air System Named = CENTRAL SYSTEM did not converge for energy
   **   ~~~   ** Check values should be zero. Most Recent values listed first.
   **   ~~~   ** Demand-to-Supply interface energy check value iteration history trace: 2966.899260,2966.899260,2966.899261,2966.899262,2966.899262,2966.899263,2966.899264,2966.899264,2966.899265,2966.899266,
   **   ~~~   ** Supply-to-demand interface deck 1 energy check value iteration history trace: 1181.010519,1181.010519,1181.010519,1181.010519,1181.010520,1181.010520,1181.010520,1181.010520,1181.010521,1181.010521,
   ** Warning ** SimHVAC: Maximum iterations (20) exceeded for all HVAC loops, at ANNUAL, 06/08 07:26 - 07:30
   **   ~~~   ** The solution for one or more of the Air Loop HVAC systems did not appear to converge
   **   ~~~   ** Air System Named = CENTRAL SYSTEM did not converge for mass flow rate
   **   ~~~   ** Check values should be zero. Most Recent values listed first.
   **   ~~~   ** Demand-to-Supply interface mass flow rate check value iteration history trace: 0.263563,0.263563,0.263563,0.263563,0.263563,0.263563,0.263563,0.263563,0.263563,0.263563,
   **   ~~~   ** Supply-to-demand interface deck 1 mass flow rate check value iteration history trace: 0.263563,0.263563,0.263563,0.263563,0.263563,0.263563,0.263563,0.263563,0.263563,0.263563,
   **   ~~~   ** Air System Named = CENTRAL SYSTEM did not converge for energy
   **   ~~~   ** Check values should be zero. Most Recent values listed first.
   **   ~~~   ** Demand-to-Supply interface energy check value iteration history trace: 6285.603435,6285.603436,6285.603438,6285.603439,6285.603441,6285.603442,6285.603444,6285.603446,6285.603447,6285.603449,
   **   ~~~   ** Supply-to-demand interface deck 1 energy check value iteration history trace: 3107.296124,3107.296124,3107.296125,3107.296126,3107.296127,3107.296127,3107.296128,3107.296129,3107.296130,3107.296131,
   ** Warning ** SimHVAC: Maximum iterations (20) exceeded for all HVAC loops, at ANNUAL, 06/08 12:45 - 13:00
   **   ~~~   ** The solution for one or more of the Air Loop HVAC systems did not appear to converge
   **   ~~~   ** Air System Named = CENTRAL SYSTEM did not converge for mass flow rate
   **   ~~~   ** Check values should be zero. Most Recent values listed first.
   **   ~~~   ** Demand-to-Supply interface mass flow rate check value iteration history trace: 0.106165,0.106165,0.106165,0.106165,0.106165,0.106165,0.106165,0.106165,0.106165,0.106165,
   **   ~~~   ** Supply-to-demand interface deck 1 mass flow rate check value iteration history trace: 0.106165,0.106165,0.106165,0.106165,0.106165,0.106165,0.106165,0.106165,0.106165,0.106165,
   **   ~~~   ** Air System Named = CENTRAL SYSTEM did not converge for energy
   **   ~~~   ** Check values should be zero. Most Recent values listed first.
   **   ~~~   ** Demand-to-Supply interface energy check value iteration history trace: 2518.488855,2518.488855,2518.488855,2518.488856,2518.488856,2518.488857,2518.488857,2518.488858,2518.488858,2518.488858,
   **   ~~~   ** Supply-to-demand interface deck 1 energy check value iteration history trace: 1211.920924,1211.920924,1211.920924,1211.920925,1211.920925,1211.920925,1211.920925,1211.920925,1211.920926,1211.920926,
   ************* Simulation Error Summary *************
   ** Warning ** The following Report Variables were requested but not generated -- check.rdd file
   **   ~~~   ** Either the IDF did not contain these elements, the variable name is misspelled,
   **   ~~~   ** or the requested variable is an advanced output which requires Output : Diagnostics, DisplayAdvancedReportVariables;
   ************* Key=*, VarName=BASEBOARD TOTAL HEATING ENERGY, Frequency=
   ************* Key=*, VarName=WATER HEATER NATURALGAS ENERGY, Frequency=
   ************* Key=*, VarName=COOLING COIL TOTAL HEATING ENERGY, Frequency=
   ************* There are 34 unused schedules in input.
   ************* There are 388 unused week schedules in input.
   ************* There are 397 unused day schedules in input.
   ************* Use Output:Diagnostics,DisplayUnusedSchedules; to see them.
   *************
   ************* ===== Recurring Error Summary =====
   ************* The following recurring error messages occurred.
   *************
   *************  ** Warning ** "TOTAL HOT WATER LOAD" - Target water temperature should be less than or equal to the hot water temperature error continues...
   *************  **   ~~~   **   This error occurred 87293 total times;
   *************  **   ~~~   **   during Warmup 0 times;
   *************  **   ~~~   **   during Sizing 0 times.
   *************  **   ~~~   **   Max=10.109751  Min=2.042325E-003
   *************
   *************  ** Warning ** SimHVAC: Exceeding Maximum iterations for all HVAC loops, during ANNUAL continues
   *************  **   ~~~   **   This error occurred 6 total times;
   *************  **   ~~~   **   during Warmup 0 times;
   *************  **   ~~~   **   during Sizing 0 times.
   *************
   *************
   ************* ===== Final Error Summary =====
   ************* The following error categories occurred.  Consider correcting or noting.
   ************* Nominally Unused Constructions
   ************* ..The nominally unused constructions warning is provided to alert you to potential conditions that can cause
   ************* ..extra time during simulation. Each construction is calculated by the algorithm indicated in the HeatBalanceAlgorithm
   ************* ..object. You may remove the constructions indicated (when you use the DisplayExtraWarnings option).
   *************
   ************* EnergyPlus Warmup Error Summary. During Warmup: 1 Warning; 0 Severe Errors.
   ************* EnergyPlus Sizing Error Summary. During Sizing: 4 Warning; 0 Severe Errors.
   ************* EnergyPlus Completed Successfully-- 87330 Warning; 0 Severe Errors; Elapsed Time=00hr 01min 28.89sec
