Program Version,EnergyPlus, Version 22.2.0-c249759bad, YMD=2024.02.09 15:36,
   ** Warning ** Due to PerformancePrecisionTradeoffs Override Mode, the Number of TimeSteps has been changed to 1.
   ** Warning ** Due to PerformancePrecisionTradeoffs Override Mode, the ZoneAirHeatBalanceAlgorithm has been changed to EulerMethod.
   ** Warning ** Due to PerformancePrecisionTradeoffs Override Mode, the Minimum Number of Warmup Days has been changed to 1.
   ** Warning ** Due to PerformancePrecisionTradeoffs Override Mode, the Begin Environment Reset Mode has been changed to SuppressAllBeginEnvironmentResets.
   ** Warning ** Due to PerformancePrecisionTradeoffs Override Mode, the minimum System TimeSteps has been changed to 1 hr.
   ** Warning ** Due to PerformancePrecisionTradeoffs Override Mode, the saturated temperature will be calculated using cubic spline interpolations in replacement of PsychTsatFnPb .
   ** Warning ** Due to PerformancePrecisionTradeoffs Override Mode, internal variable MaxZoneTempDiff will be set to 1.0 .
   ** Warning ** PerformancePrecisionTradeoffs: Coil Direct Solution simulation is selected.
   ** Warning ** PerformancePrecisionTradeoffs: Carroll MRT radiant exchange method is selected.
   ** Warning ** Due to the use of the fast simulation mode, the time step for simulation and averaging window of sizing is overwritten to one hour. Original user inputs for averaging window and timestep are no longer used.
   ************* Beginning Zone Sizing Calculations
   ** Warning ** Foundation:Kiva="KIVA FOUNDATION", no Interior Horizontal Insulation Material Name defined
   **   ~~~   ** Interior Horizontal Insulation Depth will not be used.
   ** Warning ** CheckUsedConstructions: There are 16 nominally unused constructions in input.
   **   ~~~   ** Each Unused construction is shown.
   ************* Construction=INTERIOR FLOOR
   ************* Construction=INTERIOR WINDOW
   ************* Construction=EXTERIOR DOOR
   ************* Construction=INTERIOR DOOR
   ************* Construction=GABLE CONSTRUCTION
   ************* Construction=CRAWL_FLOOR
   ************* Construction=INSULATED PIPE
   ************* Construction=PLAIN PIPE
   ************* Construction=TDD PIPE
   ************* Construction=TDD DOME
   ************* Construction=TDD DIFFUSER
   ************* Construction=CRAWL WALL
   ************* Construction=INTERIORFURNISHINGS
   ************* Construction=CEILING-FLOOR-LAYER
   ************* Construction=SLAB CONSTRUCTION W FULL R10 INSULATION
   ************* Construction=SLAB CONSTRUCTION W FULL R5 INSULATION
   ************* Beginning System Sizing Calculations
   ** Warning ** ManageSizing: For a plant sizing run, there must be at least 1 Sizing:Plant object input. SimulationControl Plant Sizing option ignored.
   ************* SizeHVACSingleDuct: Potential issue with equipment sizing for AirTerminal:SingleDuct:ConstantVolume:NoReheat = "ZONEDIRECTAIR".
   **   ~~~   ** User-Specified Maximum Air Flow Rate of 0.27939 [m3/s]
   **   ~~~   ** differs from Design Size Maximum Air Flow Rate of 0.14164 [m3/s]
   **   ~~~   ** This may, or may not, indicate mismatched component sizes.
   **   ~~~   ** Verify that the value entered is intended and is consistent with other components.
   ** Warning ** GetDXCoils: Coil:Heating:DX:MultiSpeed="DX_HEATING_COIL" curve values
   **   ~~~   ** ... Defrost Energy Input Ratio Function of Temperature Curve Name = DEFROSTEIR output is not equal to 1.0 (+ or - 10%) at rated conditions.
   **   ~~~   ** ... Curve output at rated conditions = 0.152
   ** Warning ** AirLoopHVAC:UnitaryHeatPump:AirToAir:MultiSpeed - air flow rate = 0.2793928 in fan object FAN is less than the MSHP system air flow rate when cooling is required (0.3352714).
   **   ~~~   **  The MSHP system flow rate when cooling is required is reset to the fan flow rate and the simulation continues.
   **   ~~~   **  Occurs in AirLoopHVAC:UnitaryHeatPump:AirToAir:MultiSpeed = MS HEAT PUMP
   ** Warning ** AirLoopHVAC:UnitaryHeatPump:AirToAir:MultiSpeed - air flow rate = 0.2793928 in fan object FAN is less than the MSHP system air flow rate when heating is required (0.3352714).
   **   ~~~   **  The MSHP system flow rate when heating is required is reset to the fan flow rate and the simulation continues.
   **   ~~~   **  Occurs in AirLoopHVAC:UnitaryHeatPump:AirToAir:MultiSpeed = MS HEAT PUMP
   ************* SizeDXCoil: Potential issue with equipment sizing for Coil:Cooling:DX:MultiSpeed DX_COOLING_COIL
   **   ~~~   ** User-Specified Speed 4 Gross Rated Total Cooling Capacity [m3/s] = 0.33527
   **   ~~~   ** differs from Design Size Speed 4 Gross Rated Total Cooling Capacity [m3/s] = 0.27939
   **   ~~~   ** This may, or may not, indicate mismatched component sizes.
   **   ~~~   ** Verify that the value entered is intended and is consistent with other components.
   ************* SizeDXCoil: Potential issue with equipment sizing for Coil:Cooling:DX:MultiSpeed DX_COOLING_COIL
   **   ~~~   ** User-Specified Speed 3 Gross Rated Sensible Heat Ratio [m3/s] = 0.27939
   **   ~~~   ** differs from Design Size Speed 3 Gross Rated Sensible Heat Ratio [m3/s] = 0.20954
   **   ~~~   ** This may, or may not, indicate mismatched component sizes.
   **   ~~~   ** Verify that the value entered is intended and is consistent with other components.
   ************* SizeDXCoil: Potential issue with equipment sizing for Coil:Cooling:DX:MultiSpeed DX_COOLING_COIL
   **   ~~~   ** User-Specified Speed 2 Gross Rated Cooling COP [m3/s] = 0.25145
   **   ~~~   ** differs from Design Size Speed 2 Gross Rated Cooling COP [m3/s] = 0.13970
   **   ~~~   ** This may, or may not, indicate mismatched component sizes.
   **   ~~~   ** Verify that the value entered is intended and is consistent with other components.
   ************* SizeDXCoil: Potential issue with equipment sizing for Coil:Cooling:DX:MultiSpeed DX_COOLING_COIL
   **   ~~~   ** User-Specified Speed 1 Rated Air Flow Rate [m3/s] = 0.16764
   **   ~~~   ** differs from Design Size Speed 1 Rated Air Flow Rate [m3/s] = 6.98482E-002
   **   ~~~   ** This may, or may not, indicate mismatched component sizes.
   **   ~~~   ** Verify that the value entered is intended and is consistent with other components.
   ************* SizeDXCoil: Potential issue with equipment sizing for Coil:Cooling:DX:MultiSpeed DX_COOLING_COIL
   **   ~~~   ** User-Specified Speed 2 Evaporative Condenser Air Flow Rate [W] = 6740.63461
   **   ~~~   ** differs from Design Size Speed 2 Evaporative Condenser Air Flow Rate [W] = 5768.17620
   **   ~~~   ** This may, or may not, indicate mismatched component sizes.
   **   ~~~   ** Verify that the value entered is intended and is consistent with other components.
   ************* SizeDXCoil: Potential issue with equipment sizing for Coil:Cooling:DX:MultiSpeed DX_COOLING_COIL
   **   ~~~   ** User-Specified Speed 1 Rated Evaporative Condenser Pump Power Consumption [W] = 4516.22519
   **   ~~~   ** differs from Design Size Speed 1 Rated Evaporative Condenser Pump Power Consumption [W] = 3845.45080
   **   ~~~   ** This may, or may not, indicate mismatched component sizes.
   **   ~~~   ** Verify that the value entered is intended and is consistent with other components.
   ************* SizeDXCoil: Potential issue with equipment sizing for Coil:Cooling:DX:MultiSpeed DX_COOLING_COIL
   **   ~~~   ** User-Specified Speed 1 Gross Rated Total Cooling Capacity [W] = 3302.91096
   **   ~~~   ** differs from Design Size Speed 1 Gross Rated Total Cooling Capacity [W] = 1922.72540
   **   ~~~   ** This may, or may not, indicate mismatched component sizes.
   **   ~~~   ** Verify that the value entered is intended and is consistent with other components.
   ************* SizeDXCoil: Potential issue with equipment sizing for Coil:Cooling:DX:MultiSpeed DX_COOLING_COIL
   **   ~~~   ** User-Specified Speed 2 Rated Sensible Heat Ratio = 0.78000
   **   ~~~   ** differs from Design Size Speed 2 Rated Sensible Heat Ratio = 0.65000
   **   ~~~   ** This may, or may not, indicate mismatched component sizes.
   **   ~~~   ** Verify that the value entered is intended and is consistent with other components.
   ************* SizeDXCoil: Potential issue with equipment sizing for Coil:Cooling:DX:MultiSpeed DX_COOLING_COIL
   **   ~~~   ** User-Specified Speed 1 Rated Sensible Heat Ratio = 0.79500
   **   ~~~   ** differs from Design Size Speed 1 Rated Sensible Heat Ratio = 0.65000
   **   ~~~   ** This may, or may not, indicate mismatched component sizes.
   **   ~~~   ** Verify that the value entered is intended and is consistent with other components.
   ** Warning ** For object = Coil:Cooling:DX:MultiSpeed, name = "DX_COOLING_COIL"
   **   ~~~   ** Calculated outlet air relative humidity greater than 1. The combination of
   **   ~~~   ** rated air volume flow rate, total cooling capacity and sensible heat ratio yields coil exiting
   **   ~~~   ** air conditions above the saturation curve. Possible fixes are to reduce the rated total cooling
   **   ~~~   ** capacity, increase the rated air volume flow rate, or reduce the rated sensible heat ratio for this coil.
   **   ~~~   ** If autosizing, it is recommended that all three of these values be autosized.
   **   ~~~   ** ...Inputs used for calculating cooling coil bypass factor.
   **   ~~~   ** ...Inlet Air Temperature     = 26.67 C
   **   ~~~   ** ...Outlet Air Temperature    = 13.43 C
   **   ~~~   ** ...Inlet Air Humidity Ratio  = 1.118470E-002 kgWater/kgDryAir
   **   ~~~   ** ...Outlet Air Humidity Ratio = 9.815654E-003 kgWater/kgDryAir
   **   ~~~   ** ...Total Cooling Capacity used in calculation = 3302.91 W
   **   ~~~   ** ...Air Mass Flow Rate used in calculation     = 0.193912 kg/s
   **   ~~~   ** ...Air Volume Flow Rate used in calculation   = 0.167636 m3/s
   **   ~~~   **  During Warmup, Environment=EXTREME_WINTER, at Simulation time=01/08 00:00 - 01:00
   **   ~~~   ** CalcCBF: SHR adjusted to achieve valid outlet air properties and the simulation continues.
   **   ~~~   ** CalcCBF: initial SHR = 0.79500
   **   ~~~   ** CalcCBF: adjusted SHR = 0.78182
   ************* SizeDXCoil: Potential issue with equipment sizing for Coil:Heating:DX:MultiSpeed DX_HEATING_COIL
   **   ~~~   ** User-Specified Speed 3 Rated Waste Heat Fraction of Power Input [m3/s] = 0.33527
   **   ~~~   ** differs from Design Size Speed 3 Rated Waste Heat Fraction of Power Input [m3/s] = 0.27939
   **   ~~~   ** This may, or may not, indicate mismatched component sizes.
   **   ~~~   ** Verify that the value entered is intended and is consistent with other components.
   ************* SizeDXCoil: Potential issue with equipment sizing for Coil:Heating:DX:MultiSpeed DX_HEATING_COIL
   **   ~~~   ** User-Specified Speed 3 Gross Rated Heating Capacity [m3/s] = 0.27939
   **   ~~~   ** differs from Design Size Speed 3 Gross Rated Heating Capacity [m3/s] = 0.20954
   **   ~~~   ** This may, or may not, indicate mismatched component sizes.
   **   ~~~   ** Verify that the value entered is intended and is consistent with other components.
   ************* SizeDXCoil: Potential issue with equipment sizing for Coil:Heating:DX:MultiSpeed DX_HEATING_COIL
   **   ~~~   ** User-Specified Speed 2 Gross Rated Heating COP [m3/s] = 0.25145
   **   ~~~   ** differs from Design Size Speed 2 Gross Rated Heating COP [m3/s] = 0.13970
   **   ~~~   ** This may, or may not, indicate mismatched component sizes.
   **   ~~~   ** Verify that the value entered is intended and is consistent with other components.
   ************* SizeDXCoil: Potential issue with equipment sizing for Coil:Heating:DX:MultiSpeed DX_HEATING_COIL
   **   ~~~   ** User-Specified Speed 1 Rated Air Flow Rate [m3/s] = 0.16764
   **   ~~~   ** differs from Design Size Speed 1 Rated Air Flow Rate [m3/s] = 6.98482E-002
   **   ~~~   ** This may, or may not, indicate mismatched component sizes.
   **   ~~~   ** Verify that the value entered is intended and is consistent with other components.
   ************* SizeDXCoil: Potential issue with equipment sizing for Coil:Heating:DX:MultiSpeed DX_HEATING_COIL
   **   ~~~   ** User-Specified Speed 1 Gross Rated Heating Capacity [W] = 3073.14324
   **   ~~~   ** differs from Design Size Speed 1 Gross Rated Heating Capacity [W] = 1922.72540
   **   ~~~   ** This may, or may not, indicate mismatched component sizes.
   **   ~~~   ** Verify that the value entered is intended and is consistent with other components.
   ************* Testing Individual Branch Integrity
   ************* All Branches passed integrity testing
   ************* Testing Individual Supply Air Path Integrity
   ************* All Supply Air Paths passed integrity testing
   ************* Testing Individual Return Air Path Integrity
   ************* All Return Air Paths passed integrity testing
   ************* No node connection errors were found.
   ************* Beginning Simulation
   ************* Simulation Error Summary *************
   ** Warning ** The following Report Variables were requested but not generated -- check.rdd file
   **   ~~~   ** Either the IDF did not contain these elements, the variable name is misspelled,
   **   ~~~   ** or the requested variable is an advanced output which requires Output : Diagnostics, DisplayAdvancedReportVariables;
   ************* Key=*, VarName=BASEBOARD ELECTRICITY RATE, Frequency=Hourly
   ************* Key=*, VarName=HEATING COIL NATURALGAS RATE, Frequency=Hourly
   ************* Key=*, VarName=HEATING COIL PROPANE RATE, Frequency=Hourly
   ************* There are 40 unused schedules in input.
   ************* There are 395 unused week schedules in input.
   ************* There are 409 unused day schedules in input.
   ************* Use Output:Diagnostics,DisplayUnusedSchedules; to see them.
   *************
   ************* ===== Final Error Summary =====
   ************* The following error categories occurred.  Consider correcting or noting.
   ************* Nominally Unused Constructions
   ************* ..The nominally unused constructions warning is provided to alert you to potential conditions that can cause
   ************* ..extra time during simulation. Each construction is calculated by the algorithm indicated in the HeatBalanceAlgorithm
   ************* ..object. You may remove the constructions indicated (when you use the DisplayExtraWarnings option).
   *************
   ************* EnergyPlus Warmup Error Summary. During Warmup: 0 Warning; 0 Severe Errors.
   ************* EnergyPlus Sizing Error Summary. During Sizing: 4 Warning; 0 Severe Errors.
   ************* EnergyPlus Completed Successfully-- 18 Warning; 0 Severe Errors; Elapsed Time=00hr 00min  0.55sec
