Program Version,EnergyPlus, Version 22.2.0-c249759bad, YMD=2023.09.01 19:50,
   ************* Beginning Zone Sizing Calculations
   ** Warning ** ProcessScheduleInput: Schedule:Constant="ALWAYS ON DISCRETE", Schedule Type Limits Name="ONOFF" not found -- will not be validated
   ** Warning ** Foundation:Kiva="KIVA FOUNDATION", no Interior Horizontal Insulation Material Name defined
   **   ~~~   ** Interior Horizontal Insulation Depth will not be used.
   ** Warning ** CheckUsedConstructions: There are 15 nominally unused constructions in input.
   **   ~~~   ** Each Unused construction is shown.
   ************* Construction=INTERIOR FLOOR
   ************* Construction=INTERIOR WINDOW
   ************* Construction=EXTERIOR DOOR
   ************* Construction=INTERIOR DOOR
   ************* Construction=GABLE CONSTRUCTION
   ************* Construction=CRAWL_FLOOR
   ************* Construction=INSULATED PIPE
   ************* Construction=PLAIN PIPE
   ************* Construction=TDD PIPE
   ************* Construction=TDD DOME
   ************* Construction=TDD DIFFUSER
   ************* Construction=CRAWL WALL
   ************* Construction=CEILING-FLOOR-LAYER
   ************* Construction=SLAB CONSTRUCTION W FULL R10 INSULATION
   ************* Construction=SLAB CONSTRUCTION W FULL R5 INSULATION
   ** Warning ** GetDXCoils: Coil:Heating:DX:SingleSpeed="DX_HEATING_COIL" curve values
   **   ~~~   ** ... Defrost Energy Input Ratio Function of Temperature Curve Name = DEFROSTEIR output is not equal to 1.0 (+ or - 10%) at rated conditions.
   **   ~~~   ** ... Curve output at rated conditions = 0.152
   ************* Beginning System Sizing Calculations
   ************* Beginning Plant Sizing Calculations
   ** Warning ** Coil:WaterHeating:AirToWaterHeatPump:Wrapped "HEAT PUMP WATER HEATER EVAPORATOR": Rated air volume flow rate per watt of rated total water heating capacity is out of range
   **   ~~~   ** Min Rated Vol Flow Per Watt=[4.027E-005], Rated Vol Flow Per Watt=[1.510E-004], Max Rated Vol Flow Per Watt=[8.056E-005]. See Input-Output Reference Manual for valid range.
   ************* SizeFan: : Potential issue with equipment sizing for Fan:OnOff HEAT PUMP WATER HEATER FAN
   **   ~~~   ** User-Specified Maximum Flow Rate [m3/s] = 0.22653
   **   ~~~   ** differs from Design Size Maximum Flow Rate [m3/s] = 7.55250E-002
   **   ~~~   ** This may, or may not, indicate mismatched component sizes.
   **   ~~~   ** Verify that the value entered is intended and is consistent with other components.
   ** Warning ** Water heater = WATER HEATER TANK:  Recovery Efficiency and Energy Factor could not be calculated during the test for standard ratings
   **   ~~~   ** Setpoint was never recovered and/or heater never turned on
   ** Warning ** Check input. Pump nominal power or motor efficiency is set to 0, for pump=MAINS PRESSURE
   ** Warning ** Output:Meter: invalid Key Name="ELECTRIC_RANGE:INTERIOREQUIPMENT:ELECTRICITY" - not found.
   ** Warning ** Output:Meter: invalid Key Name="ELECTRIC_DRYER:INTERIOREQUIPMENT:ELECTRICITY" - not found.
   ** Warning ** Output:Meter: invalid Key Name="HEATRECOVERY:ELECTRICITY" - not found.
   ** Warning ** Output:Meter: invalid Key Name="HEATING:NATURALGAS" - not found.
   ** Warning ** Output:Meter: invalid Key Name="WATERSYSTEMS:NATURALGAS" - not found.
   ** Warning ** Output:Meter: invalid Key Name="PROPANE:FACILITY" - not found.
   ** Warning ** Output:Meter: invalid Key Name="HEATING:PROPANE" - not found.
   ************* Testing Individual Branch Integrity
   ************* All Branches passed integrity testing
   ************* Testing Individual Supply Air Path Integrity
   ************* All Supply Air Paths passed integrity testing
   ************* Testing Individual Return Air Path Integrity
   ************* All Return Air Paths passed integrity testing
   ************* No node connection errors were found.
   ************* Beginning Simulation
   ** Warning ** AirflowNetwork::Solver::validate_distribution: Heat pump water heater is simulated along with an AirflowNetwork but is not included in the AirflowNetwork.
   ** Warning ** CalcEquipmentFlowRates: "TOTAL HOT WATER LOAD" - Target water temperature is greater than the hot water temperature by (4.74 C)
   **   ~~~   **  Environment=EXTREME_WINTER, at Simulation time=01/06 06:00 - 06:15
   **   ~~~   ** ...target water temperature     = 53.33 C
   **   ~~~   ** ...hot water temperature        = 48.59 C
   **   ~~~   ** ...Target water temperature should be less than or equal to the hot water temperature. Verify temperature setpoints and schedules.
   ** Warning ** SimHVAC: Maximum iterations (20) exceeded for all HVAC loops, at ANNUAL, 01/10 14:45 - 15:00
   **   ~~~   ** The solution for one or more of the Air Loop HVAC systems did not appear to converge
   **   ~~~   ** Air System Named = CENTRAL SYSTEM did not converge for mass flow rate
   **   ~~~   ** Check values should be zero. Most Recent values listed first.
   **   ~~~   ** Demand-to-Supply interface mass flow rate check value iteration history trace: 8.389021E-002,8.389021E-002,8.389021E-002,8.389021E-002,8.389021E-002,8.389021E-002,8.389021E-002,8.389021E-002,8.389021E-002,8.389021E-002,
   **   ~~~   ** Supply-to-demand interface deck 1 mass flow rate check value iteration history trace: 8.389021E-002,8.389021E-002,8.389021E-002,8.389021E-002,8.389021E-002,8.389021E-002,8.389021E-002,8.389021E-002,8.389021E-002,8.389021E-002,
   **   ~~~   ** Air System Named = CENTRAL SYSTEM did not converge for energy
   **   ~~~   ** Check values should be zero. Most Recent values listed first.
   **   ~~~   ** Demand-to-Supply interface energy check value iteration history trace: 1663.783150,1663.783150,1663.783150,1663.783150,1663.783150,1663.783150,1663.783150,1663.783150,1663.783150,1663.783149,
   **   ~~~   ** Supply-to-demand interface deck 1 energy check value iteration history trace: 2458.536627,2458.536626,2458.536626,2458.536626,2458.536626,2458.536626,2458.536626,2458.536626,2458.536625,2458.536625,
   ** Warning ** SimHVAC: Maximum iterations (20) exceeded for all HVAC loops, at ANNUAL, 01/17 13:15 - 13:30
   **   ~~~   ** The solution for one or more of the Air Loop HVAC systems did not appear to converge
   **   ~~~   ** Air System Named = CENTRAL SYSTEM did not converge for mass flow rate
   **   ~~~   ** Check values should be zero. Most Recent values listed first.
   **   ~~~   ** Demand-to-Supply interface mass flow rate check value iteration history trace: 8.737599E-002,8.737599E-002,8.737599E-002,8.737599E-002,8.737599E-002,8.737599E-002,8.737599E-002,8.737599E-002,8.737599E-002,8.737599E-002,
   **   ~~~   ** Supply-to-demand interface deck 1 mass flow rate check value iteration history trace: 8.737599E-002,8.737599E-002,8.737599E-002,8.737599E-002,8.737599E-002,8.737599E-002,8.737599E-002,8.737599E-002,8.737599E-002,8.737599E-002,
   **   ~~~   ** Air System Named = CENTRAL SYSTEM did not converge for energy
   **   ~~~   ** Check values should be zero. Most Recent values listed first.
   **   ~~~   ** Demand-to-Supply interface energy check value iteration history trace: 1731.875919,1731.875919,1731.875919,1731.875919,1731.875918,1731.875918,1731.875918,1731.875918,1731.875918,1731.875918,
   **   ~~~   ** Supply-to-demand interface deck 1 energy check value iteration history trace: 2596.746324,2596.746324,2596.746324,2596.746323,2596.746323,2596.746323,2596.746323,2596.746323,2596.746322,2596.746322,
   ** Warning ** SimHVAC: Maximum iterations (20) exceeded for all HVAC loops, at ANNUAL, 02/13 12:00 - 12:15
   **   ~~~   ** The solution for one or more of the Air Loop HVAC systems did not appear to converge
   **   ~~~   ** Air System Named = CENTRAL SYSTEM did not converge for mass flow rate
   **   ~~~   ** Check values should be zero. Most Recent values listed first.
   **   ~~~   ** Demand-to-Supply interface mass flow rate check value iteration history trace: 5.087845E-002,5.087845E-002,5.087845E-002,5.087845E-002,5.087845E-002,5.087845E-002,5.087845E-002,5.087845E-002,5.087845E-002,5.087845E-002,
   **   ~~~   ** Supply-to-demand interface deck 1 mass flow rate check value iteration history trace: 5.087845E-002,5.087845E-002,5.087845E-002,5.087845E-002,5.087845E-002,5.087845E-002,5.087845E-002,5.087845E-002,5.087845E-002,5.087845E-002,
   **   ~~~   ** Air System Named = CENTRAL SYSTEM did not converge for energy
   **   ~~~   ** Check values should be zero. Most Recent values listed first.
   **   ~~~   ** Demand-to-Supply interface energy check value iteration history trace: 993.902890,993.902890,993.902890,993.902890,993.902890,993.902890,993.902890,993.902890,993.902890,993.902890,
   **   ~~~   ** Supply-to-demand interface deck 1 energy check value iteration history trace: 1729.393690,1729.393690,1729.393690,1729.393690,1729.393690,1729.393690,1729.393690,1729.393690,1729.393690,1729.393690,
   ** Warning ** SimHVAC: Maximum iterations (20) exceeded for all HVAC loops, at ANNUAL, 03/05 18:38 - 18:45
   **   ~~~   ** The solution for one or more of the Air Loop HVAC systems did not appear to converge
   **   ~~~   ** Air System Named = CENTRAL SYSTEM did not converge for mass flow rate
   **   ~~~   ** Check values should be zero. Most Recent values listed first.
   **   ~~~   ** Demand-to-Supply interface mass flow rate check value iteration history trace: 0.100108,0.100108,0.100108,0.100108,0.100108,0.100108,0.100108,0.100108,0.100108,0.100108,
   **   ~~~   ** Supply-to-demand interface deck 1 mass flow rate check value iteration history trace: 0.100108,0.100108,0.100108,0.100108,0.100108,0.100108,0.100108,0.100108,0.100108,0.100108,
   **   ~~~   ** Air System Named = CENTRAL SYSTEM did not converge for energy
   **   ~~~   ** Check values should be zero. Most Recent values listed first.
   **   ~~~   ** Demand-to-Supply interface energy check value iteration history trace: 1979.722986,1979.722985,1979.722985,1979.722984,1979.722984,1979.722983,1979.722983,1979.722982,1979.722982,1979.722981,
   **   ~~~   ** Supply-to-demand interface deck 1 energy check value iteration history trace: 3068.070279,3068.070278,3068.070277,3068.070276,3068.070276,3068.070275,3068.070274,3068.070273,3068.070273,3068.070272,
   **   ~~~   ** Node named ZONE INLET NODE shows oscillating temperatures across iterations with a repeated value of 30.499808
   **   ~~~   ** Node named ZONE INLET NODE temperature [C] iteration history trace (most recent first): 30.499808,30.499808,30.499808,30.499807,30.499807,30.499807,30.499807,30.499806,30.499806,30.499806,
   ** Warning ** SimHVAC: Maximum iterations (20) exceeded for all HVAC loops, at ANNUAL, 03/11 15:00 - 15:15
   **   ~~~   ** The solution for one or more of the Air Loop HVAC systems did not appear to converge
   **   ~~~   ** Air System Named = CENTRAL SYSTEM did not converge for mass flow rate
   **   ~~~   ** Check values should be zero. Most Recent values listed first.
   **   ~~~   ** Demand-to-Supply interface mass flow rate check value iteration history trace: 6.293090E-002,6.293090E-002,6.293090E-002,6.293090E-002,6.293090E-002,6.293090E-002,6.293090E-002,6.293090E-002,6.293090E-002,6.293090E-002,
   **   ~~~   ** Supply-to-demand interface deck 1 mass flow rate check value iteration history trace: 6.293090E-002,6.293090E-002,6.293090E-002,6.293090E-002,6.293090E-002,6.293090E-002,6.293090E-002,6.293090E-002,6.293090E-002,6.293090E-002,
   **   ~~~   ** Air System Named = CENTRAL SYSTEM did not converge for energy
   **   ~~~   ** Check values should be zero. Most Recent values listed first.
   **   ~~~   ** Demand-to-Supply interface energy check value iteration history trace: 1245.735411,1245.735411,1245.735411,1245.735411,1245.735411,1245.735411,1245.735411,1245.735411,1245.735410,1245.735410,
   **   ~~~   ** Supply-to-demand interface deck 1 energy check value iteration history trace: 2207.221287,2207.221287,2207.221287,2207.221287,2207.221287,2207.221287,2207.221287,2207.221287,2207.221287,2207.221287,
   ** Warning ** SimHVAC: Maximum iterations (20) exceeded for all HVAC loops, at ANNUAL, 03/13 11:00 - 11:15
   **   ~~~   ** The solution for one or more of the Air Loop HVAC systems did not appear to converge
   **   ~~~   ** Air System Named = CENTRAL SYSTEM did not converge for mass flow rate
   **   ~~~   ** Check values should be zero. Most Recent values listed first.
   **   ~~~   ** Demand-to-Supply interface mass flow rate check value iteration history trace: 7.394529E-002,7.394529E-002,7.394529E-002,7.394529E-002,7.394529E-002,7.394529E-002,7.394529E-002,7.394529E-002,7.394529E-002,7.394529E-002,
   **   ~~~   ** Supply-to-demand interface deck 1 mass flow rate check value iteration history trace: 7.394529E-002,7.394529E-002,7.394529E-002,7.394529E-002,7.394529E-002,7.394529E-002,7.394529E-002,7.394529E-002,7.394529E-002,7.394529E-002,
   **   ~~~   ** Air System Named = CENTRAL SYSTEM did not converge for energy
   **   ~~~   ** Check values should be zero. Most Recent values listed first.
   **   ~~~   ** Demand-to-Supply interface energy check value iteration history trace: 1465.258856,1465.258856,1465.258855,1465.258855,1465.258855,1465.258855,1465.258855,1465.258855,1465.258855,1465.258855,
   **   ~~~   ** Supply-to-demand interface deck 1 energy check value iteration history trace: 2277.844421,2277.844420,2277.844420,2277.844420,2277.844420,2277.844420,2277.844420,2277.844420,2277.844419,2277.844419,
   ** Warning ** SimHVAC: Maximum iterations (20) exceeded for all HVAC loops, at ANNUAL, 04/03 11:45 - 12:00
   **   ~~~   ** The solution for one or more of the Air Loop HVAC systems did not appear to converge
   **   ~~~   ** Air System Named = CENTRAL SYSTEM did not converge for mass flow rate
   **   ~~~   ** Check values should be zero. Most Recent values listed first.
   **   ~~~   ** Demand-to-Supply interface mass flow rate check value iteration history trace: 1.266700E-002,1.266700E-002,1.266700E-002,1.266700E-002,1.266700E-002,1.266700E-002,1.266700E-002,1.266700E-002,1.266700E-002,1.266700E-002,
   **   ~~~   ** Supply-to-demand interface deck 1 mass flow rate check value iteration history trace: 1.266700E-002,1.266700E-002,1.266700E-002,1.266700E-002,1.266700E-002,1.266700E-002,1.266700E-002,1.266700E-002,1.266700E-002,1.266700E-002,
   **   ~~~   ** Air System Named = CENTRAL SYSTEM did not converge for energy
   **   ~~~   ** Check values should be zero. Most Recent values listed first.
   **   ~~~   ** Demand-to-Supply interface energy check value iteration history trace: 249.536529,249.536529,249.536529,249.536529,249.536529,249.536529,249.536529,249.536529,249.536529,249.536529,
   **   ~~~   ** Supply-to-demand interface deck 1 energy check value iteration history trace: 438.401067,438.401067,438.401067,438.401067,438.401067,438.401067,438.401067,438.401067,438.401067,438.401067,
   ** Warning ** SimHVAC: Maximum iterations (20) exceeded for all HVAC loops, at ANNUAL, 04/05 16:30 - 16:45
   **   ~~~   ** The solution for one or more of the Air Loop HVAC systems did not appear to converge
   **   ~~~   ** Air System Named = CENTRAL SYSTEM did not converge for mass flow rate
   **   ~~~   ** Check values should be zero. Most Recent values listed first.
   **   ~~~   ** Demand-to-Supply interface mass flow rate check value iteration history trace: 7.202196E-002,7.202196E-002,7.202196E-002,7.202196E-002,7.202196E-002,7.202196E-002,7.202196E-002,7.202196E-002,7.202196E-002,7.202196E-002,
   **   ~~~   ** Supply-to-demand interface deck 1 mass flow rate check value iteration history trace: 7.202196E-002,7.202196E-002,7.202196E-002,7.202196E-002,7.202196E-002,7.202196E-002,7.202196E-002,7.202196E-002,7.202196E-002,7.202196E-002,
   **   ~~~   ** Air System Named = CENTRAL SYSTEM did not converge for energy
   **   ~~~   ** Check values should be zero. Most Recent values listed first.
   **   ~~~   ** Demand-to-Supply interface energy check value iteration history trace: 1407.449004,1407.449004,1407.449004,1407.449004,1407.449003,1407.449003,1407.449003,1407.449003,1407.449002,1407.449002,
   **   ~~~   ** Supply-to-demand interface deck 1 energy check value iteration history trace: 2484.652969,2484.652969,2484.652969,2484.652968,2484.652968,2484.652967,2484.652967,2484.652967,2484.652966,2484.652966,
   ** Warning ** SimHVAC: Maximum iterations (20) exceeded for all HVAC loops, at ANNUAL, 04/05 18:08 - 18:15
   **   ~~~   ** The solution for one or more of the Air Loop HVAC systems did not appear to converge
   **   ~~~   ** Air System Named = CENTRAL SYSTEM did not converge for mass flow rate
   **   ~~~   ** Check values should be zero. Most Recent values listed first.
   **   ~~~   ** Demand-to-Supply interface mass flow rate check value iteration history trace: 6.469044E-002,6.469044E-002,6.469044E-002,6.469044E-002,6.469044E-002,6.469044E-002,6.469044E-002,6.469044E-002,6.469044E-002,6.469044E-002,
   **   ~~~   ** Supply-to-demand interface deck 1 mass flow rate check value iteration history trace: 6.469044E-002,6.469044E-002,6.469044E-002,6.469044E-002,6.469044E-002,6.469044E-002,6.469044E-002,6.469044E-002,6.469044E-002,6.469044E-002,
   **   ~~~   ** Air System Named = CENTRAL SYSTEM did not converge for energy
   **   ~~~   ** Check values should be zero. Most Recent values listed first.
   **   ~~~   ** Demand-to-Supply interface energy check value iteration history trace: 1277.394695,1277.394695,1277.394695,1277.394695,1277.394694,1277.394694,1277.394694,1277.394694,1277.394694,1277.394694,
   **   ~~~   ** Supply-to-demand interface deck 1 energy check value iteration history trace: 2204.433266,2204.433266,2204.433266,2204.433266,2204.433266,2204.433266,2204.433266,2204.433266,2204.433266,2204.433266,
   ** Warning ** SimHVAC: Maximum iterations (20) exceeded for all HVAC loops, at ANNUAL, 04/12 08:20 - 08:25
   **   ~~~   ** The solution for one or more of the Air Loop HVAC systems did not appear to converge
   **   ~~~   ** Air System Named = CENTRAL SYSTEM did not converge for mass flow rate
   **   ~~~   ** Check values should be zero. Most Recent values listed first.
   **   ~~~   ** Demand-to-Supply interface mass flow rate check value iteration history trace: 6.105497E-002,6.105497E-002,6.105497E-002,6.105497E-002,6.105497E-002,6.105497E-002,6.105497E-002,6.105497E-002,6.105497E-002,6.105497E-002,
   **   ~~~   ** Supply-to-demand interface deck 1 mass flow rate check value iteration history trace: 6.105497E-002,6.105497E-002,6.105497E-002,6.105497E-002,6.105497E-002,6.105497E-002,6.105497E-002,6.105497E-002,6.105497E-002,6.105497E-002,
   **   ~~~   ** Air System Named = CENTRAL SYSTEM did not converge for energy
   **   ~~~   ** Check values should be zero. Most Recent values listed first.
   **   ~~~   ** Demand-to-Supply interface energy check value iteration history trace: 1206.496216,1206.496216,1206.496216,1206.496216,1206.496216,1206.496216,1206.496216,1206.496216,1206.496215,1206.496215,
   **   ~~~   ** Supply-to-demand interface deck 1 energy check value iteration history trace: 2164.543254,2164.543254,2164.543253,2164.543253,2164.543253,2164.543253,2164.543253,2164.543253,2164.543253,2164.543253,
   ** Warning ** SimHVAC: Maximum iterations (20) exceeded for all HVAC loops, at ANNUAL, 04/26 03:45 - 04:00
   **   ~~~   ** The solution for one or more of the Air Loop HVAC systems did not appear to converge
   **   ~~~   ** Air System Named = CENTRAL SYSTEM did not converge for mass flow rate
   **   ~~~   ** Check values should be zero. Most Recent values listed first.
   **   ~~~   ** Demand-to-Supply interface mass flow rate check value iteration history trace: 5.546813E-002,5.546813E-002,5.546813E-002,5.546813E-002,5.546813E-002,5.546813E-002,5.546813E-002,5.546813E-002,5.546813E-002,5.546813E-002,
   **   ~~~   ** Supply-to-demand interface deck 1 mass flow rate check value iteration history trace: 5.546813E-002,5.546813E-002,5.546813E-002,5.546813E-002,5.546813E-002,5.546813E-002,5.546813E-002,5.546813E-002,5.546813E-002,5.546813E-002,
   **   ~~~   ** Air System Named = CENTRAL SYSTEM did not converge for energy
   **   ~~~   ** Check values should be zero. Most Recent values listed first.
   **   ~~~   ** Demand-to-Supply interface energy check value iteration history trace: 1034.962036,1034.962036,1034.962036,1034.962036,1034.962036,1034.962036,1034.962036,1034.962036,1034.962036,1034.962036,
   **   ~~~   ** Supply-to-demand interface deck 1 energy check value iteration history trace: 1823.304651,1823.304651,1823.304651,1823.304650,1823.304650,1823.304650,1823.304650,1823.304650,1823.304650,1823.304650,
   ** Warning ** SimHVAC: Maximum iterations (20) exceeded for all HVAC loops, at ANNUAL, 05/26 22:53 - 23:00
   **   ~~~   ** The solution for one or more of the Air Loop HVAC systems did not appear to converge
   **   ~~~   ** Air System Named = CENTRAL SYSTEM did not converge for mass flow rate
   **   ~~~   ** Check values should be zero. Most Recent values listed first.
   **   ~~~   ** Demand-to-Supply interface mass flow rate check value iteration history trace: 0.124117,0.124117,0.124117,0.124117,0.124117,0.124117,0.124117,0.124117,0.124117,0.124117,
   **   ~~~   ** Supply-to-demand interface deck 1 mass flow rate check value iteration history trace: 0.124117,0.124117,0.124117,0.124117,0.124117,0.124117,0.124117,0.124117,0.124117,0.124117,
   **   ~~~   ** Air System Named = CENTRAL SYSTEM did not converge for energy
   **   ~~~   ** Check values should be zero. Most Recent values listed first.
   **   ~~~   ** Demand-to-Supply interface energy check value iteration history trace: 3063.715988,3063.715989,3063.715990,3063.715991,3063.715992,3063.715993,3063.715993,3063.715994,3063.715995,3063.715996,
   **   ~~~   ** Supply-to-demand interface deck 1 energy check value iteration history trace: 1514.058118,1514.058119,1514.058119,1514.058120,1514.058120,1514.058121,1514.058121,1514.058121,1514.058122,1514.058122,
   ** Warning ** SimHVAC: Maximum iterations (20) exceeded for all HVAC loops, at ANNUAL, 10/26 20:20 - 20:25
   **   ~~~   ** The solution for one or more of the Air Loop HVAC systems did not appear to converge
   **   ~~~   ** Air System Named = CENTRAL SYSTEM did not converge for mass flow rate
   **   ~~~   ** Check values should be zero. Most Recent values listed first.
   **   ~~~   ** Demand-to-Supply interface mass flow rate check value iteration history trace: 0.181500,0.181500,0.181500,0.181500,0.181500,0.181500,0.181500,0.181500,0.181500,0.181500,
   **   ~~~   ** Supply-to-demand interface deck 1 mass flow rate check value iteration history trace: 0.181500,0.181500,0.181500,0.181500,0.181500,0.181500,0.181500,0.181500,0.181500,0.181500,
   **   ~~~   ** Air System Named = CENTRAL SYSTEM did not converge for energy
   **   ~~~   ** Check values should be zero. Most Recent values listed first.
   **   ~~~   ** Demand-to-Supply interface energy check value iteration history trace: 4299.559267,4299.559267,4299.559268,4299.559269,4299.559269,4299.559270,4299.559270,4299.559271,4299.559271,4299.559272,
   **   ~~~   ** Supply-to-demand interface deck 1 energy check value iteration history trace: 1973.141462,1973.141462,1973.141463,1973.141463,1973.141463,1973.141463,1973.141464,1973.141464,1973.141464,1973.141464,
   ** Warning ** SimHVAC: Maximum iterations (20) exceeded for all HVAC loops, at ANNUAL, 11/21 09:04 - 09:08
   **   ~~~   ** The solution for one or more of the Air Loop HVAC systems did not appear to converge
   **   ~~~   ** Air System Named = CENTRAL SYSTEM did not converge for mass flow rate
   **   ~~~   ** Check values should be zero. Most Recent values listed first.
   **   ~~~   ** Demand-to-Supply interface mass flow rate check value iteration history trace: 5.819164E-002,5.819164E-002,5.819164E-002,5.819164E-002,5.819164E-002,5.819164E-002,5.819164E-002,5.819164E-002,5.819164E-002,5.819164E-002,
   **   ~~~   ** Supply-to-demand interface deck 1 mass flow rate check value iteration history trace: 5.819164E-002,5.819164E-002,5.819164E-002,5.819164E-002,5.819164E-002,5.819164E-002,5.819164E-002,5.819164E-002,5.819164E-002,5.819164E-002,
   **   ~~~   ** Air System Named = CENTRAL SYSTEM did not converge for energy
   **   ~~~   ** Check values should be zero. Most Recent values listed first.
   **   ~~~   ** Demand-to-Supply interface energy check value iteration history trace: 1153.162976,1153.162976,1153.162976,1153.162976,1153.162976,1153.162976,1153.162975,1153.162975,1153.162975,1153.162975,
   **   ~~~   ** Supply-to-demand interface deck 1 energy check value iteration history trace: 1988.351567,1988.351567,1988.351566,1988.351566,1988.351566,1988.351566,1988.351566,1988.351566,1988.351566,1988.351566,
   ************* Simulation Error Summary *************
   ** Warning ** The following Report Variables were requested but not generated -- check.rdd file
   **   ~~~   ** Either the IDF did not contain these elements, the variable name is misspelled,
   **   ~~~   ** or the requested variable is an advanced output which requires Output : Diagnostics, DisplayAdvancedReportVariables;
   ************* Key=*, VarName=BASEBOARD TOTAL HEATING ENERGY, Frequency=
   ************* Key=*, VarName=WATER HEATER NATURALGAS ENERGY, Frequency=
   ************* Key=*, VarName=COOLING COIL TOTAL HEATING ENERGY, Frequency=
   ************* There are 34 unused schedules in input.
   ************* There are 388 unused week schedules in input.
   ************* There are 396 unused day schedules in input.
   ************* Use Output:Diagnostics,DisplayUnusedSchedules; to see them.
   *************
   ************* ===== Recurring Error Summary =====
   ************* The following recurring error messages occurred.
   *************
   *************  ** Warning ** "TOTAL HOT WATER LOAD" - Target water temperature should be less than or equal to the hot water temperature error continues...
   *************  **   ~~~   **   This error occurred 105565 total times;
   *************  **   ~~~   **   during Warmup 0 times;
   *************  **   ~~~   **   during Sizing 0 times.
   *************  **   ~~~   **   Max=12.58082  Min=1.184308E-003
   *************
   *************  ** Warning ** SimHVAC: Exceeding Maximum iterations for all HVAC loops, during ANNUAL continues
   *************  **   ~~~   **   This error occurred 5 total times;
   *************  **   ~~~   **   during Warmup 0 times;
   *************  **   ~~~   **   during Sizing 0 times.
   *************
   *************
   ************* ===== Final Error Summary =====
   ************* The following error categories occurred.  Consider correcting or noting.
   ************* Nominally Unused Constructions
   ************* ..The nominally unused constructions warning is provided to alert you to potential conditions that can cause
   ************* ..extra time during simulation. Each construction is calculated by the algorithm indicated in the HeatBalanceAlgorithm
   ************* ..object. You may remove the constructions indicated (when you use the DisplayExtraWarnings option).
   *************
   ************* EnergyPlus Warmup Error Summary. During Warmup: 1 Warning; 0 Severe Errors.
   ************* EnergyPlus Sizing Error Summary. During Sizing: 4 Warning; 0 Severe Errors.
   ************* EnergyPlus Completed Successfully-- 105601 Warning; 0 Severe Errors; Elapsed Time=00hr 01min 21.20sec
