Program Version,EnergyPlus, Version 22.2.0-c249759bad, YMD=2023.09.01 18:51,
   ************* Beginning Zone Sizing Calculations
   ** Warning ** ProcessScheduleInput: Schedule:Constant="ALWAYS ON DISCRETE", Schedule Type Limits Name="ONOFF" not found -- will not be validated
   ** Warning ** Foundation:Kiva="KIVA FOUNDATION", no Interior Horizontal Insulation Material Name defined
   **   ~~~   ** Interior Horizontal Insulation Depth will not be used.
   ** Warning ** CheckUsedConstructions: There are 15 nominally unused constructions in input.
   **   ~~~   ** Each Unused construction is shown.
   ************* Construction=INTERIOR FLOOR
   ************* Construction=INTERIOR WINDOW
   ************* Construction=EXTERIOR DOOR
   ************* Construction=INTERIOR DOOR
   ************* Construction=GABLE CONSTRUCTION
   ************* Construction=CRAWL_FLOOR
   ************* Construction=INSULATED PIPE
   ************* Construction=PLAIN PIPE
   ************* Construction=TDD PIPE
   ************* Construction=TDD DOME
   ************* Construction=TDD DIFFUSER
   ************* Construction=CRAWL WALL
   ************* Construction=CEILING-FLOOR-LAYER
   ************* Construction=SLAB CONSTRUCTION W FULL R10 INSULATION
   ************* Construction=SLAB CONSTRUCTION W FULL R5 INSULATION
   ** Warning ** GetDXCoils: Coil:Heating:DX:SingleSpeed="DX_HEATING_COIL" curve values
   **   ~~~   ** ... Defrost Energy Input Ratio Function of Temperature Curve Name = DEFROSTEIR output is not equal to 1.0 (+ or - 10%) at rated conditions.
   **   ~~~   ** ... Curve output at rated conditions = 0.152
   ************* Beginning System Sizing Calculations
   ************* Beginning Plant Sizing Calculations
   ** Warning ** SizeDXCoil Coil:Cooling:DX:SingleSpeed DX_COOLING_COIL
   **   ~~~   ** ...Gross Rated Total Cooling Capacity [W] will be limited by the maximum rated volume flow per rated total capacity ratio.
   **   ~~~   ** ...DX coil volume flow rate ( m3/s ) = 0.462752
   **   ~~~   ** ...Requested capacity ( W ) = 5749.910
   **   ~~~   ** ...Requested flow/capacity ratio ( m3/s/W ) = 8.048E-005
   **   ~~~   ** ...Maximum flow/capacity ratio ( m3/s/W ) = 6.041E-005
   **   ~~~   ** ...Adjusted capacity ( W ) = 7660.197
   ** Warning ** Coil:WaterHeating:AirToWaterHeatPump:Wrapped "HEAT PUMP WATER HEATER EVAPORATOR": Rated air volume flow rate per watt of rated total water heating capacity is out of range
   **   ~~~   ** Min Rated Vol Flow Per Watt=[4.027E-005], Rated Vol Flow Per Watt=[1.510E-004], Max Rated Vol Flow Per Watt=[8.056E-005]. See Input-Output Reference Manual for valid range.
   ************* SizeFan: : Potential issue with equipment sizing for Fan:OnOff HEAT PUMP WATER HEATER FAN
   **   ~~~   ** User-Specified Maximum Flow Rate [m3/s] = 0.22653
   **   ~~~   ** differs from Design Size Maximum Flow Rate [m3/s] = 7.55250E-002
   **   ~~~   ** This may, or may not, indicate mismatched component sizes.
   **   ~~~   ** Verify that the value entered is intended and is consistent with other components.
   ** Warning ** Water heater = WATER HEATER TANK:  Recovery Efficiency and Energy Factor could not be calculated during the test for standard ratings
   **   ~~~   ** Setpoint was never recovered and/or heater never turned on
   ** Warning ** Check input. Pump nominal power or motor efficiency is set to 0, for pump=MAINS PRESSURE
   ** Warning ** Output:Meter: invalid Key Name="ELECTRIC_RANGE:INTERIOREQUIPMENT:ELECTRICITY" - not found.
   ** Warning ** Output:Meter: invalid Key Name="ELECTRIC_DRYER:INTERIOREQUIPMENT:ELECTRICITY" - not found.
   ** Warning ** Output:Meter: invalid Key Name="HEATRECOVERY:ELECTRICITY" - not found.
   ** Warning ** Output:Meter: invalid Key Name="HEATING:NATURALGAS" - not found.
   ** Warning ** Output:Meter: invalid Key Name="WATERSYSTEMS:NATURALGAS" - not found.
   ** Warning ** Output:Meter: invalid Key Name="PROPANE:FACILITY" - not found.
   ** Warning ** Output:Meter: invalid Key Name="HEATING:PROPANE" - not found.
   ************* Testing Individual Branch Integrity
   ************* All Branches passed integrity testing
   ************* Testing Individual Supply Air Path Integrity
   ************* All Supply Air Paths passed integrity testing
   ************* Testing Individual Return Air Path Integrity
   ************* All Return Air Paths passed integrity testing
   ************* No node connection errors were found.
   ************* Beginning Simulation
   ** Warning ** AirflowNetwork::Solver::validate_distribution: Heat pump water heater is simulated along with an AirflowNetwork but is not included in the AirflowNetwork.
   ** Warning ** CalcEquipmentFlowRates: "TOTAL HOT WATER LOAD" - Target water temperature is greater than the hot water temperature by (2.52 C)
   **   ~~~   **  Environment=EXTREME_WINTER, at Simulation time=01/06 03:45 - 04:00
   **   ~~~   ** ...target water temperature     = 53.33 C
   **   ~~~   ** ...hot water temperature        = 50.82 C
   **   ~~~   ** ...Target water temperature should be less than or equal to the hot water temperature. Verify temperature setpoints and schedules.
   ** Warning ** SimHVAC: Maximum iterations (20) exceeded for all HVAC loops, at EXTREME_WINTER, 01/10 13:38 - 13:45
   **   ~~~   ** The solution for one or more of the Air Loop HVAC systems did not appear to converge
   **   ~~~   ** Air System Named = CENTRAL SYSTEM did not converge for mass flow rate
   **   ~~~   ** Check values should be zero. Most Recent values listed first.
   **   ~~~   ** Demand-to-Supply interface mass flow rate check value iteration history trace: 5.809082E-002,5.809082E-002,5.809082E-002,5.809082E-002,5.809082E-002,5.809082E-002,5.809082E-002,5.809082E-002,5.809082E-002,5.809082E-002,
   **   ~~~   ** Supply-to-demand interface deck 1 mass flow rate check value iteration history trace: 5.809082E-002,5.809082E-002,5.809082E-002,5.809082E-002,5.809082E-002,5.809082E-002,5.809082E-002,5.809082E-002,5.809082E-002,5.809082E-002,
   **   ~~~   ** Air System Named = CENTRAL SYSTEM did not converge for energy
   **   ~~~   ** Check values should be zero. Most Recent values listed first.
   **   ~~~   ** Demand-to-Supply interface energy check value iteration history trace: 1145.053566,1145.053566,1145.053566,1145.053565,1145.053565,1145.053565,1145.053565,1145.053565,1145.053565,1145.053565,
   **   ~~~   ** Supply-to-demand interface deck 1 energy check value iteration history trace: 1808.448430,1808.448430,1808.448430,1808.448430,1808.448430,1808.448430,1808.448430,1808.448430,1808.448429,1808.448429,
   ** Warning ** SimHVAC: Maximum iterations (20) exceeded for all HVAC loops, at EXTREME_WINTER, 01/11 11:49 - 11:51
   **   ~~~   ** The solution for one or more of the Air Loop HVAC systems did not appear to converge
   **   ~~~   ** Air System Named = CENTRAL SYSTEM did not converge for mass flow rate
   **   ~~~   ** Check values should be zero. Most Recent values listed first.
   **   ~~~   ** Demand-to-Supply interface mass flow rate check value iteration history trace: 5.995296E-002,5.995296E-002,5.995296E-002,5.995296E-002,5.995296E-002,5.995296E-002,5.995296E-002,5.995296E-002,5.995296E-002,5.995296E-002,
   **   ~~~   ** Supply-to-demand interface deck 1 mass flow rate check value iteration history trace: 5.995296E-002,5.995296E-002,5.995296E-002,5.995296E-002,5.995296E-002,5.995296E-002,5.995296E-002,5.995296E-002,5.995296E-002,5.995296E-002,
   **   ~~~   ** Air System Named = CENTRAL SYSTEM did not converge for energy
   **   ~~~   ** Check values should be zero. Most Recent values listed first.
   **   ~~~   ** Demand-to-Supply interface energy check value iteration history trace: 1188.154906,1188.154906,1188.154906,1188.154906,1188.154906,1188.154906,1188.154906,1188.154906,1188.154906,1188.154906,
   **   ~~~   ** Supply-to-demand interface deck 1 energy check value iteration history trace: 1929.786520,1929.786520,1929.786520,1929.786519,1929.786519,1929.786519,1929.786519,1929.786519,1929.786519,1929.786519,
   ** Warning ** SimHVAC: Maximum iterations (20) exceeded for all HVAC loops, at EXTREME_SUMMER, 07/24 05:35 - 05:40
   **   ~~~   ** The solution for one or more of the Air Loop HVAC systems did not appear to converge
   **   ~~~   ** Air System Named = CENTRAL SYSTEM did not converge for mass flow rate
   **   ~~~   ** Check values should be zero. Most Recent values listed first.
   **   ~~~   ** Demand-to-Supply interface mass flow rate check value iteration history trace: 0.134242,0.134242,0.134242,0.134242,0.134242,0.134242,0.134242,0.134242,0.134242,0.134242,
   **   ~~~   ** Supply-to-demand interface deck 1 mass flow rate check value iteration history trace: 0.134242,0.134242,0.134242,0.134242,0.134242,0.134242,0.134242,0.134242,0.134242,0.134242,
   **   ~~~   ** Air System Named = CENTRAL SYSTEM did not converge for energy
   **   ~~~   ** Check values should be zero. Most Recent values listed first.
   **   ~~~   ** Demand-to-Supply interface energy check value iteration history trace: 3150.536421,3150.536422,3150.536423,3150.536423,3150.536424,3150.536425,3150.536425,3150.536426,3150.536427,3150.536427,
   **   ~~~   ** Supply-to-demand interface deck 1 energy check value iteration history trace: 1343.719465,1343.719466,1343.719466,1343.719466,1343.719466,1343.719467,1343.719467,1343.719467,1343.719468,1343.719468,
   ** Warning ** SimHVAC: Maximum iterations (20) exceeded for all HVAC loops, at ANNUAL, 01/07 11:45 - 12:00
   **   ~~~   ** The solution for one or more of the Air Loop HVAC systems did not appear to converge
   **   ~~~   ** Air System Named = CENTRAL SYSTEM did not converge for mass flow rate
   **   ~~~   ** Check values should be zero. Most Recent values listed first.
   **   ~~~   ** Demand-to-Supply interface mass flow rate check value iteration history trace: 2.360758E-002,2.360758E-002,2.360758E-002,2.360758E-002,2.360758E-002,2.360758E-002,2.360758E-002,2.360758E-002,2.360758E-002,2.360758E-002,
   **   ~~~   ** Supply-to-demand interface deck 1 mass flow rate check value iteration history trace: 2.360758E-002,2.360758E-002,2.360758E-002,2.360758E-002,2.360758E-002,2.360758E-002,2.360758E-002,2.360758E-002,2.360758E-002,2.360758E-002,
   **   ~~~   ** Air System Named = CENTRAL SYSTEM did not converge for energy
   **   ~~~   ** Check values should be zero. Most Recent values listed first.
   **   ~~~   ** Demand-to-Supply interface energy check value iteration history trace: 467.850942,467.850942,467.850942,467.850942,467.850942,467.850942,467.850942,467.850942,467.850942,467.850942,
   **   ~~~   ** Supply-to-demand interface deck 1 energy check value iteration history trace: 746.678387,746.678387,746.678387,746.678387,746.678387,746.678387,746.678387,746.678387,746.678387,746.678387,
   ** Warning ** SimHVAC: Maximum iterations (20) exceeded for all HVAC loops, at ANNUAL, 01/15 14:15 - 14:30
   **   ~~~   ** The solution for one or more of the Air Loop HVAC systems did not appear to converge
   **   ~~~   ** Air System Named = CENTRAL SYSTEM did not converge for mass flow rate
   **   ~~~   ** Check values should be zero. Most Recent values listed first.
   **   ~~~   ** Demand-to-Supply interface mass flow rate check value iteration history trace: 5.618324E-002,5.618324E-002,5.618324E-002,5.618324E-002,5.618324E-002,5.618324E-002,5.618324E-002,5.618324E-002,5.618324E-002,5.618324E-002,
   **   ~~~   ** Supply-to-demand interface deck 1 mass flow rate check value iteration history trace: 5.618324E-002,5.618324E-002,5.618324E-002,5.618324E-002,5.618324E-002,5.618324E-002,5.618324E-002,5.618324E-002,5.618324E-002,5.618324E-002,
   **   ~~~   ** Air System Named = CENTRAL SYSTEM did not converge for energy
   **   ~~~   ** Check values should be zero. Most Recent values listed first.
   **   ~~~   ** Demand-to-Supply interface energy check value iteration history trace: 1091.775771,1091.775771,1091.775771,1091.775770,1091.775770,1091.775770,1091.775770,1091.775770,1091.775770,1091.775770,
   **   ~~~   ** Supply-to-demand interface deck 1 energy check value iteration history trace: 1860.783042,1860.783042,1860.783042,1860.783041,1860.783041,1860.783041,1860.783041,1860.783041,1860.783041,1860.783041,
   ** Warning ** Temperature out of range [-100. to 200.] (PsyPsatFnTemp)
   **   ~~~   **  Routine=PsyTwbFnTdbWPb, Environment=ANNUAL, at Simulation time=01/24 02:00 - 02:15
   **   ~~~   **  Input Temperature=-469.16
   ** Warning ** SimHVAC: Maximum iterations (20) exceeded for all HVAC loops, at ANNUAL, 02/11 09:50 - 09:52
   **   ~~~   ** The solution for one or more of the Air Loop HVAC systems did not appear to converge
   **   ~~~   ** Air System Named = CENTRAL SYSTEM did not converge for mass flow rate
   **   ~~~   ** Check values should be zero. Most Recent values listed first.
   **   ~~~   ** Demand-to-Supply interface mass flow rate check value iteration history trace: 5.067204E-002,5.067204E-002,5.067204E-002,5.067204E-002,5.067204E-002,5.067204E-002,5.067204E-002,5.067204E-002,5.067204E-002,5.067204E-002,
   **   ~~~   ** Supply-to-demand interface deck 1 mass flow rate check value iteration history trace: 5.067204E-002,5.067204E-002,5.067204E-002,5.067204E-002,5.067204E-002,5.067204E-002,5.067204E-002,5.067204E-002,5.067204E-002,5.067204E-002,
   **   ~~~   ** Air System Named = CENTRAL SYSTEM did not converge for energy
   **   ~~~   ** Check values should be zero. Most Recent values listed first.
   **   ~~~   ** Demand-to-Supply interface energy check value iteration history trace: 1004.178515,1004.178515,1004.178515,1004.178515,1004.178515,1004.178515,1004.178515,1004.178515,1004.178515,1004.178515,
   **   ~~~   ** Supply-to-demand interface deck 1 energy check value iteration history trace: 1942.740521,1942.740521,1942.740521,1942.740521,1942.740521,1942.740521,1942.740521,1942.740521,1942.740521,1942.740521,
   ** Warning ** SimHVAC: Maximum iterations (20) exceeded for all HVAC loops, at ANNUAL, 02/18 11:26 - 11:30
   **   ~~~   ** The solution for one or more of the Air Loop HVAC systems did not appear to converge
   **   ~~~   ** Air System Named = CENTRAL SYSTEM did not converge for mass flow rate
   **   ~~~   ** Check values should be zero. Most Recent values listed first.
   **   ~~~   ** Demand-to-Supply interface mass flow rate check value iteration history trace: 5.901382E-002,5.901382E-002,5.901382E-002,5.901382E-002,5.901382E-002,5.901382E-002,5.901382E-002,5.901382E-002,5.901382E-002,5.901382E-002,
   **   ~~~   ** Supply-to-demand interface deck 1 mass flow rate check value iteration history trace: 5.901382E-002,5.901382E-002,5.901382E-002,5.901382E-002,5.901382E-002,5.901382E-002,5.901382E-002,5.901382E-002,5.901382E-002,5.901382E-002,
   **   ~~~   ** Air System Named = CENTRAL SYSTEM did not converge for energy
   **   ~~~   ** Check values should be zero. Most Recent values listed first.
   **   ~~~   ** Demand-to-Supply interface energy check value iteration history trace: 1167.200583,1167.200583,1167.200583,1167.200583,1167.200583,1167.200583,1167.200583,1167.200583,1167.200583,1167.200583,
   **   ~~~   ** Supply-to-demand interface deck 1 energy check value iteration history trace: 1978.808530,1978.808529,1978.808529,1978.808529,1978.808529,1978.808529,1978.808529,1978.808529,1978.808529,1978.808529,
   ** Warning ** SimHVAC: Maximum iterations (20) exceeded for all HVAC loops, at ANNUAL, 02/18 11:36 - 11:39
   **   ~~~   ** The solution for one or more of the Air Loop HVAC systems did not appear to converge
   **   ~~~   ** Air System Named = CENTRAL SYSTEM did not converge for mass flow rate
   **   ~~~   ** Check values should be zero. Most Recent values listed first.
   **   ~~~   ** Demand-to-Supply interface mass flow rate check value iteration history trace: 5.698200E-002,5.698200E-002,5.698200E-002,5.698200E-002,5.698200E-002,5.698200E-002,5.698200E-002,5.698200E-002,5.698200E-002,5.698200E-002,
   **   ~~~   ** Supply-to-demand interface deck 1 mass flow rate check value iteration history trace: 5.698200E-002,5.698200E-002,5.698200E-002,5.698200E-002,5.698200E-002,5.698200E-002,5.698200E-002,5.698200E-002,5.698200E-002,5.698200E-002,
   **   ~~~   ** Air System Named = CENTRAL SYSTEM did not converge for energy
   **   ~~~   ** Check values should be zero. Most Recent values listed first.
   **   ~~~   ** Demand-to-Supply interface energy check value iteration history trace: 1126.937385,1126.937385,1126.937385,1126.937385,1126.937385,1126.937385,1126.937385,1126.937385,1126.937385,1126.937385,
   **   ~~~   ** Supply-to-demand interface deck 1 energy check value iteration history trace: 1919.011024,1919.011024,1919.011024,1919.011023,1919.011023,1919.011023,1919.011023,1919.011023,1919.011023,1919.011023,
   ** Warning ** SimHVAC: Maximum iterations (20) exceeded for all HVAC loops, at ANNUAL, 03/05 11:17 - 11:19
   **   ~~~   ** The solution for one or more of the Air Loop HVAC systems did not appear to converge
   **   ~~~   ** Air System Named = CENTRAL SYSTEM did not converge for mass flow rate
   **   ~~~   ** Check values should be zero. Most Recent values listed first.
   **   ~~~   ** Demand-to-Supply interface mass flow rate check value iteration history trace: 5.773874E-002,5.773874E-002,5.773874E-002,5.773874E-002,5.773874E-002,5.773874E-002,5.773874E-002,5.773874E-002,5.773874E-002,5.773874E-002,
   **   ~~~   ** Supply-to-demand interface deck 1 mass flow rate check value iteration history trace: 5.773874E-002,5.773874E-002,5.773874E-002,5.773874E-002,5.773874E-002,5.773874E-002,5.773874E-002,5.773874E-002,5.773874E-002,5.773874E-002,
   **   ~~~   ** Air System Named = CENTRAL SYSTEM did not converge for energy
   **   ~~~   ** Check values should be zero. Most Recent values listed first.
   **   ~~~   ** Demand-to-Supply interface energy check value iteration history trace: 1144.280054,1144.280054,1144.280054,1144.280054,1144.280054,1144.280054,1144.280054,1144.280054,1144.280054,1144.280054,
   **   ~~~   ** Supply-to-demand interface deck 1 energy check value iteration history trace: 1886.321946,1886.321946,1886.321946,1886.321946,1886.321946,1886.321945,1886.321945,1886.321945,1886.321945,1886.321945,
   ** Warning ** SimHVAC: Maximum iterations (20) exceeded for all HVAC loops, at ANNUAL, 03/05 12:06 - 12:09
   **   ~~~   ** The solution for one or more of the Air Loop HVAC systems did not appear to converge
   **   ~~~   ** Air System Named = CENTRAL SYSTEM did not converge for mass flow rate
   **   ~~~   ** Check values should be zero. Most Recent values listed first.
   **   ~~~   ** Demand-to-Supply interface mass flow rate check value iteration history trace: 4.228234E-002,4.228234E-002,4.228234E-002,4.228234E-002,4.228234E-002,4.228234E-002,4.228234E-002,4.228234E-002,4.228234E-002,4.228234E-002,
   **   ~~~   ** Supply-to-demand interface deck 1 mass flow rate check value iteration history trace: 4.228234E-002,4.228234E-002,4.228234E-002,4.228234E-002,4.228234E-002,4.228234E-002,4.228234E-002,4.228234E-002,4.228234E-002,4.228234E-002,
   **   ~~~   ** Air System Named = CENTRAL SYSTEM did not converge for energy
   **   ~~~   ** Check values should be zero. Most Recent values listed first.
   **   ~~~   ** Demand-to-Supply interface energy check value iteration history trace: 835.949408,835.949408,835.949408,835.949408,835.949408,835.949408,835.949408,835.949408,835.949408,835.949408,
   **   ~~~   ** Supply-to-demand interface deck 1 energy check value iteration history trace: 1527.915751,1527.915751,1527.915751,1527.915751,1527.915751,1527.915751,1527.915751,1527.915751,1527.915751,1527.915751,
   ** Warning ** SimHVAC: Maximum iterations (20) exceeded for all HVAC loops, at ANNUAL, 10/12 07:00 - 07:15
   **   ~~~   ** The solution for one or more of the Air Loop HVAC systems did not appear to converge
   **   ~~~   ** Air System Named = CENTRAL SYSTEM did not converge for mass flow rate
   **   ~~~   ** Check values should be zero. Most Recent values listed first.
   **   ~~~   ** Demand-to-Supply interface mass flow rate check value iteration history trace: 4.735456E-002,4.735456E-002,4.735456E-002,4.735456E-002,4.735456E-002,4.735456E-002,4.735456E-002,4.735456E-002,4.735456E-002,4.735456E-002,
   **   ~~~   ** Supply-to-demand interface deck 1 mass flow rate check value iteration history trace: 4.735456E-002,4.735456E-002,4.735456E-002,4.735456E-002,4.735456E-002,4.735456E-002,4.735456E-002,4.735456E-002,4.735456E-002,4.735456E-002,
   **   ~~~   ** Air System Named = CENTRAL SYSTEM did not converge for energy
   **   ~~~   ** Check values should be zero. Most Recent values listed first.
   **   ~~~   ** Demand-to-Supply interface energy check value iteration history trace: 938.299729,938.299729,938.299729,938.299729,938.299729,938.299729,938.299729,938.299729,938.299729,938.299729,
   **   ~~~   ** Supply-to-demand interface deck 1 energy check value iteration history trace: 1738.340623,1738.340623,1738.340623,1738.340623,1738.340623,1738.340623,1738.340623,1738.340622,1738.340622,1738.340622,
   ** Warning ** SimHVAC: Maximum iterations (20) exceeded for all HVAC loops, at ANNUAL, 10/19 08:47 - 08:48
   **   ~~~   ** The solution for one or more of the Air Loop HVAC systems did not appear to converge
   **   ~~~   ** Air System Named = CENTRAL SYSTEM did not converge for mass flow rate
   **   ~~~   ** Check values should be zero. Most Recent values listed first.
   **   ~~~   ** Demand-to-Supply interface mass flow rate check value iteration history trace: 4.616896E-002,4.616896E-002,4.616896E-002,4.616896E-002,4.616896E-002,4.616896E-002,4.616896E-002,4.616896E-002,4.616896E-002,4.616896E-002,
   **   ~~~   ** Supply-to-demand interface deck 1 mass flow rate check value iteration history trace: 4.616896E-002,4.616896E-002,4.616896E-002,4.616896E-002,4.616896E-002,4.616896E-002,4.616896E-002,4.616896E-002,4.616896E-002,4.616896E-002,
   **   ~~~   ** Air System Named = CENTRAL SYSTEM did not converge for energy
   **   ~~~   ** Check values should be zero. Most Recent values listed first.
   **   ~~~   ** Demand-to-Supply interface energy check value iteration history trace: 913.003311,913.003311,913.003311,913.003311,913.003311,913.003311,913.003311,913.003311,913.003311,913.003311,
   **   ~~~   ** Supply-to-demand interface deck 1 energy check value iteration history trace: 1703.262541,1703.262541,1703.262541,1703.262541,1703.262541,1703.262541,1703.262541,1703.262541,1703.262541,1703.262540,
   ** Warning ** SimHVAC: Maximum iterations (20) exceeded for all HVAC loops, at ANNUAL, 10/26 03:23 - 03:30
   **   ~~~   ** The solution for one or more of the Air Loop HVAC systems did not appear to converge
   **   ~~~   ** Air System Named = CENTRAL SYSTEM did not converge for mass flow rate
   **   ~~~   ** Check values should be zero. Most Recent values listed first.
   **   ~~~   ** Demand-to-Supply interface mass flow rate check value iteration history trace: 4.357929E-002,4.357929E-002,4.357929E-002,4.357929E-002,4.357929E-002,4.357929E-002,4.357929E-002,4.357929E-002,4.357929E-002,4.357929E-002,
   **   ~~~   ** Supply-to-demand interface deck 1 mass flow rate check value iteration history trace: 4.357929E-002,4.357929E-002,4.357929E-002,4.357929E-002,4.357929E-002,4.357929E-002,4.357929E-002,4.357929E-002,4.357929E-002,4.357929E-002,
   **   ~~~   ** Air System Named = CENTRAL SYSTEM did not converge for energy
   **   ~~~   ** Check values should be zero. Most Recent values listed first.
   **   ~~~   ** Demand-to-Supply interface energy check value iteration history trace: 809.530932,809.530932,809.530932,809.530932,809.530932,809.530932,809.530932,809.530932,809.530931,809.530931,
   **   ~~~   ** Supply-to-demand interface deck 1 energy check value iteration history trace: 1511.274783,1511.274783,1511.274783,1511.274783,1511.274783,1511.274783,1511.274783,1511.274783,1511.274783,1511.274783,
   ** Warning ** SimHVAC: Maximum iterations (20) exceeded for all HVAC loops, at ANNUAL, 10/30 09:00 - 09:02
   **   ~~~   ** The solution for one or more of the Air Loop HVAC systems did not appear to converge
   **   ~~~   ** Air System Named = CENTRAL SYSTEM did not converge for mass flow rate
   **   ~~~   ** Check values should be zero. Most Recent values listed first.
   **   ~~~   ** Demand-to-Supply interface mass flow rate check value iteration history trace: 4.518265E-002,4.518265E-002,4.518265E-002,4.518265E-002,4.518265E-002,4.518265E-002,4.518265E-002,4.518265E-002,4.518265E-002,4.518265E-002,
   **   ~~~   ** Supply-to-demand interface deck 1 mass flow rate check value iteration history trace: 4.518265E-002,4.518265E-002,4.518265E-002,4.518265E-002,4.518265E-002,4.518265E-002,4.518265E-002,4.518265E-002,4.518265E-002,4.518265E-002,
   **   ~~~   ** Air System Named = CENTRAL SYSTEM did not converge for energy
   **   ~~~   ** Check values should be zero. Most Recent values listed first.
   **   ~~~   ** Demand-to-Supply interface energy check value iteration history trace: 892.746556,892.746556,892.746556,892.746556,892.746556,892.746556,892.746556,892.746556,892.746556,892.746556,
   **   ~~~   ** Supply-to-demand interface deck 1 energy check value iteration history trace: 1629.729191,1629.729191,1629.729190,1629.729190,1629.729190,1629.729190,1629.729190,1629.729190,1629.729190,1629.729190,
   ** Warning ** WetBulb not converged after 101 iterations(PsyTwbFnTdbWPb)
   **   ~~~   **  Routine=Unknown, Environment=ANNUAL, at Simulation time=12/04 19:00 - 19:05
   **   ~~~   **  Input Temperature = 6.69
   **   ~~~   **  Input Humidity Ratio= 1.925378E-003
   **   ~~~   **  Input Pressure = 82694.00
   **   ~~~   **  Resultant Temperature= -1.06
   ************* Simulation Error Summary *************
   ** Warning ** The following Report Variables were requested but not generated -- check.rdd file
   **   ~~~   ** Either the IDF did not contain these elements, the variable name is misspelled,
   **   ~~~   ** or the requested variable is an advanced output which requires Output : Diagnostics, DisplayAdvancedReportVariables;
   ************* Key=*, VarName=BASEBOARD TOTAL HEATING ENERGY, Frequency=
   ************* Key=*, VarName=WATER HEATER NATURALGAS ENERGY, Frequency=
   ************* Key=*, VarName=COOLING COIL TOTAL HEATING ENERGY, Frequency=
   ************* There are 34 unused schedules in input.
   ************* There are 388 unused week schedules in input.
   ************* There are 396 unused day schedules in input.
   ************* Use Output:Diagnostics,DisplayUnusedSchedules; to see them.
   *************
   ************* ===== Recurring Error Summary =====
   ************* The following recurring error messages occurred.
   *************
   *************  ** Warning ** "TOTAL HOT WATER LOAD" - Target water temperature should be less than or equal to the hot water temperature error continues...
   *************  **   ~~~   **   This error occurred 74557 total times;
   *************  **   ~~~   **   during Warmup 0 times;
   *************  **   ~~~   **   during Sizing 0 times.
   *************  **   ~~~   **   Max=6.214179  Min=3.830121E-004
   *************
   *************  ** Warning ** Temperature out of range [-100. to 200.] (PsyPsatFnTemp)
   *************  **   ~~~   **   This error occurred 7 total times;
   *************  **   ~~~   **   during Warmup 0 times;
   *************  **   ~~~   **   during Sizing 0 times.
   *************  **   ~~~   **   Max=-118.485146 C  Min=-817.304504 C
   *************
   *************  ** Warning ** SimHVAC: Exceeding Maximum iterations for all HVAC loops, during ANNUAL continues
   *************  **   ~~~   **   This error occurred 5 total times;
   *************  **   ~~~   **   during Warmup 0 times;
   *************  **   ~~~   **   during Sizing 0 times.
   *************
   *************  ** Warning ** WetBulb not converged after max iterations(PsyTwbFnTdbWPb)
   *************  **   ~~~   **   This error occurred 1 total times;
   *************  **   ~~~   **   during Warmup 0 times;
   *************  **   ~~~   **   during Sizing 0 times.
   *************
   *************
   ************* ===== Final Error Summary =====
   ************* The following error categories occurred.  Consider correcting or noting.
   ************* Nominally Unused Constructions
   ************* ..The nominally unused constructions warning is provided to alert you to potential conditions that can cause
   ************* ..extra time during simulation. Each construction is calculated by the algorithm indicated in the HeatBalanceAlgorithm
   ************* ..object. You may remove the constructions indicated (when you use the DisplayExtraWarnings option).
   *************
   ************* EnergyPlus Warmup Error Summary. During Warmup: 1 Warning; 0 Severe Errors.
   ************* EnergyPlus Sizing Error Summary. During Sizing: 4 Warning; 0 Severe Errors.
   ************* EnergyPlus Completed Successfully-- 74602 Warning; 0 Severe Errors; Elapsed Time=00hr 01min 49.61sec
