Program Version,EnergyPlus, Version 22.2.0-c249759bad, YMD=2023.09.01 19:16,
   ************* Beginning Zone Sizing Calculations
   ** Warning ** ProcessScheduleInput: Schedule:Constant="ALWAYS ON DISCRETE", Schedule Type Limits Name="ONOFF" not found -- will not be validated
   ** Warning ** Foundation:Kiva="KIVA FOUNDATION", no Interior Horizontal Insulation Material Name defined
   **   ~~~   ** Interior Horizontal Insulation Depth will not be used.
   ** Warning ** CheckUsedConstructions: There are 15 nominally unused constructions in input.
   **   ~~~   ** Each Unused construction is shown.
   ************* Construction=INTERIOR FLOOR
   ************* Construction=INTERIOR WINDOW
   ************* Construction=EXTERIOR DOOR
   ************* Construction=INTERIOR DOOR
   ************* Construction=GABLE CONSTRUCTION
   ************* Construction=CRAWL_FLOOR
   ************* Construction=INSULATED PIPE
   ************* Construction=PLAIN PIPE
   ************* Construction=TDD PIPE
   ************* Construction=TDD DOME
   ************* Construction=TDD DIFFUSER
   ************* Construction=CRAWL WALL
   ************* Construction=CEILING-FLOOR-LAYER
   ************* Construction=SLAB CONSTRUCTION W FULL R10 INSULATION
   ************* Construction=SLAB CONSTRUCTION W FULL R5 INSULATION
   ** Warning ** GetDXCoils: Coil:Heating:DX:SingleSpeed="DX_HEATING_COIL" curve values
   **   ~~~   ** ... Defrost Energy Input Ratio Function of Temperature Curve Name = DEFROSTEIR output is not equal to 1.0 (+ or - 10%) at rated conditions.
   **   ~~~   ** ... Curve output at rated conditions = 0.152
   ************* Beginning System Sizing Calculations
   ************* Beginning Plant Sizing Calculations
   ** Warning ** Coil:WaterHeating:AirToWaterHeatPump:Wrapped "HEAT PUMP WATER HEATER EVAPORATOR": Rated air volume flow rate per watt of rated total water heating capacity is out of range
   **   ~~~   ** Min Rated Vol Flow Per Watt=[4.027E-005], Rated Vol Flow Per Watt=[1.510E-004], Max Rated Vol Flow Per Watt=[8.056E-005]. See Input-Output Reference Manual for valid range.
   ************* SizeFan: : Potential issue with equipment sizing for Fan:OnOff HEAT PUMP WATER HEATER FAN
   **   ~~~   ** User-Specified Maximum Flow Rate [m3/s] = 0.22653
   **   ~~~   ** differs from Design Size Maximum Flow Rate [m3/s] = 7.55250E-002
   **   ~~~   ** This may, or may not, indicate mismatched component sizes.
   **   ~~~   ** Verify that the value entered is intended and is consistent with other components.
   ** Warning ** Water heater = WATER HEATER TANK:  Recovery Efficiency and Energy Factor could not be calculated during the test for standard ratings
   **   ~~~   ** Setpoint was never recovered and/or heater never turned on
   ** Warning ** Check input. Pump nominal power or motor efficiency is set to 0, for pump=MAINS PRESSURE
   ** Warning ** Output:Meter: invalid Key Name="ELECTRIC_RANGE:INTERIOREQUIPMENT:ELECTRICITY" - not found.
   ** Warning ** Output:Meter: invalid Key Name="ELECTRIC_DRYER:INTERIOREQUIPMENT:ELECTRICITY" - not found.
   ** Warning ** Output:Meter: invalid Key Name="HEATRECOVERY:ELECTRICITY" - not found.
   ** Warning ** Output:Meter: invalid Key Name="HEATING:NATURALGAS" - not found.
   ** Warning ** Output:Meter: invalid Key Name="WATERSYSTEMS:NATURALGAS" - not found.
   ** Warning ** Output:Meter: invalid Key Name="PROPANE:FACILITY" - not found.
   ** Warning ** Output:Meter: invalid Key Name="HEATING:PROPANE" - not found.
   ************* Testing Individual Branch Integrity
   ************* All Branches passed integrity testing
   ************* Testing Individual Supply Air Path Integrity
   ************* All Supply Air Paths passed integrity testing
   ************* Testing Individual Return Air Path Integrity
   ************* All Return Air Paths passed integrity testing
   ************* No node connection errors were found.
   ************* Beginning Simulation
   ** Warning ** AirflowNetwork::Solver::validate_distribution: Heat pump water heater is simulated along with an AirflowNetwork but is not included in the AirflowNetwork.
   ** Warning ** CalcEquipmentFlowRates: "TOTAL HOT WATER LOAD" - Target water temperature is greater than the hot water temperature by (0.86 C)
   **   ~~~   **  Environment=EXTREME_WINTER, at Simulation time=01/20 06:45 - 07:00
   **   ~~~   ** ...target water temperature     = 53.33 C
   **   ~~~   ** ...hot water temperature        = 52.47 C
   **   ~~~   ** ...Target water temperature should be less than or equal to the hot water temperature. Verify temperature setpoints and schedules.
   ** Warning ** SimHVAC: Maximum iterations (20) exceeded for all HVAC loops, at ANNUAL, 02/13 14:23 - 14:30
   **   ~~~   ** The solution for one or more of the Air Loop HVAC systems did not appear to converge
   **   ~~~   ** Air System Named = CENTRAL SYSTEM did not converge for mass flow rate
   **   ~~~   ** Check values should be zero. Most Recent values listed first.
   **   ~~~   ** Demand-to-Supply interface mass flow rate check value iteration history trace: 6.680390E-002,6.680390E-002,6.680390E-002,6.680390E-002,6.680390E-002,6.680390E-002,6.680390E-002,6.680390E-002,6.680390E-002,6.680390E-002,
   **   ~~~   ** Supply-to-demand interface deck 1 mass flow rate check value iteration history trace: 6.680390E-002,6.680390E-002,6.680390E-002,6.680390E-002,6.680390E-002,6.680390E-002,6.680390E-002,6.680390E-002,6.680390E-002,6.680390E-002,
   **   ~~~   ** Air System Named = CENTRAL SYSTEM did not converge for energy
   **   ~~~   ** Check values should be zero. Most Recent values listed first.
   **   ~~~   ** Demand-to-Supply interface energy check value iteration history trace: 1314.078746,1314.078746,1314.078746,1314.078746,1314.078745,1314.078745,1314.078745,1314.078745,1314.078745,1314.078745,
   **   ~~~   ** Supply-to-demand interface deck 1 energy check value iteration history trace: 2073.956864,2073.956864,2073.956864,2073.956864,2073.956864,2073.956864,2073.956864,2073.956863,2073.956863,2073.956863,
   ** Warning ** SimHVAC: Maximum iterations (20) exceeded for all HVAC loops, at ANNUAL, 03/24 14:00 - 14:15
   **   ~~~   ** The solution for one or more of the Air Loop HVAC systems did not appear to converge
   **   ~~~   ** Air System Named = CENTRAL SYSTEM did not converge for mass flow rate
   **   ~~~   ** Check values should be zero. Most Recent values listed first.
   **   ~~~   ** Demand-to-Supply interface mass flow rate check value iteration history trace: 5.801022E-002,5.801022E-002,5.801022E-002,5.801022E-002,5.801022E-002,5.801022E-002,5.801022E-002,5.801022E-002,5.801022E-002,5.801022E-002,
   **   ~~~   ** Supply-to-demand interface deck 1 mass flow rate check value iteration history trace: 5.801022E-002,5.801022E-002,5.801022E-002,5.801022E-002,5.801022E-002,5.801022E-002,5.801022E-002,5.801022E-002,5.801022E-002,5.801022E-002,
   **   ~~~   ** Air System Named = CENTRAL SYSTEM did not converge for energy
   **   ~~~   ** Check values should be zero. Most Recent values listed first.
   **   ~~~   ** Demand-to-Supply interface energy check value iteration history trace: 1149.625321,1149.625321,1149.625321,1149.625320,1149.625320,1149.625320,1149.625320,1149.625320,1149.625320,1149.625320,
   **   ~~~   ** Supply-to-demand interface deck 1 energy check value iteration history trace: 1954.373770,1954.373770,1954.373770,1954.373770,1954.373770,1954.373770,1954.373770,1954.373770,1954.373770,1954.373770,
   ** Warning ** SimHVAC: Maximum iterations (20) exceeded for all HVAC loops, at ANNUAL, 03/27 09:45 - 10:00
   **   ~~~   ** The solution for one or more of the Air Loop HVAC systems did not appear to converge
   **   ~~~   ** Air System Named = CENTRAL SYSTEM did not converge for mass flow rate
   **   ~~~   ** Check values should be zero. Most Recent values listed first.
   **   ~~~   ** Demand-to-Supply interface mass flow rate check value iteration history trace: 6.084236E-002,6.084236E-002,6.084236E-002,6.084236E-002,6.084236E-002,6.084236E-002,6.084236E-002,6.084236E-002,6.084236E-002,6.084236E-002,
   **   ~~~   ** Supply-to-demand interface deck 1 mass flow rate check value iteration history trace: 6.084236E-002,6.084236E-002,6.084236E-002,6.084236E-002,6.084236E-002,6.084236E-002,6.084236E-002,6.084236E-002,6.084236E-002,6.084236E-002,
   **   ~~~   ** Air System Named = CENTRAL SYSTEM did not converge for energy
   **   ~~~   ** Check values should be zero. Most Recent values listed first.
   **   ~~~   ** Demand-to-Supply interface energy check value iteration history trace: 1205.710804,1205.710804,1205.710804,1205.710804,1205.710804,1205.710804,1205.710804,1205.710804,1205.710803,1205.710803,
   **   ~~~   ** Supply-to-demand interface deck 1 energy check value iteration history trace: 2080.400250,2080.400250,2080.400250,2080.400249,2080.400249,2080.400249,2080.400249,2080.400249,2080.400249,2080.400249,
   ** Warning ** SimHVAC: Maximum iterations (20) exceeded for all HVAC loops, at ANNUAL, 04/01 17:30 - 17:45
   **   ~~~   ** The solution for one or more of the Air Loop HVAC systems did not appear to converge
   **   ~~~   ** Air System Named = CENTRAL SYSTEM did not converge for mass flow rate
   **   ~~~   ** Check values should be zero. Most Recent values listed first.
   **   ~~~   ** Demand-to-Supply interface mass flow rate check value iteration history trace: 6.609216E-002,6.609216E-002,6.609216E-002,6.609216E-002,6.609216E-002,6.609216E-002,6.609216E-002,6.609216E-002,6.609216E-002,6.609216E-002,
   **   ~~~   ** Supply-to-demand interface deck 1 mass flow rate check value iteration history trace: 6.609216E-002,6.609216E-002,6.609216E-002,6.609216E-002,6.609216E-002,6.609216E-002,6.609216E-002,6.609216E-002,6.609216E-002,6.609216E-002,
   **   ~~~   ** Air System Named = CENTRAL SYSTEM did not converge for energy
   **   ~~~   ** Check values should be zero. Most Recent values listed first.
   **   ~~~   ** Demand-to-Supply interface energy check value iteration history trace: 1309.827616,1309.827615,1309.827615,1309.827615,1309.827615,1309.827615,1309.827615,1309.827615,1309.827615,1309.827615,
   **   ~~~   ** Supply-to-demand interface deck 1 energy check value iteration history trace: 2241.925907,2241.925907,2241.925907,2241.925907,2241.925906,2241.925906,2241.925906,2241.925906,2241.925906,2241.925906,
   ** Warning ** SimHVAC: Maximum iterations (20) exceeded for all HVAC loops, at ANNUAL, 04/01 20:00 - 20:05
   **   ~~~   ** The solution for one or more of the Air Loop HVAC systems did not appear to converge
   **   ~~~   ** Air System Named = CENTRAL SYSTEM did not converge for mass flow rate
   **   ~~~   ** Check values should be zero. Most Recent values listed first.
   **   ~~~   ** Demand-to-Supply interface mass flow rate check value iteration history trace: 6.100725E-002,6.100725E-002,6.100725E-002,6.100725E-002,6.100725E-002,6.100725E-002,6.100725E-002,6.100725E-002,6.100725E-002,6.100725E-002,
   **   ~~~   ** Supply-to-demand interface deck 1 mass flow rate check value iteration history trace: 6.100725E-002,6.100725E-002,6.100725E-002,6.100725E-002,6.100725E-002,6.100725E-002,6.100725E-002,6.100725E-002,6.100725E-002,6.100725E-002,
   **   ~~~   ** Air System Named = CENTRAL SYSTEM did not converge for energy
   **   ~~~   ** Check values should be zero. Most Recent values listed first.
   **   ~~~   ** Demand-to-Supply interface energy check value iteration history trace: 1203.440444,1203.440444,1203.440444,1203.440444,1203.440444,1203.440444,1203.440444,1203.440444,1203.440444,1203.440444,
   **   ~~~   ** Supply-to-demand interface deck 1 energy check value iteration history trace: 2063.163717,2063.163717,2063.163717,2063.163716,2063.163716,2063.163716,2063.163716,2063.163716,2063.163716,2063.163716,
   ** Warning ** SimHVAC: Maximum iterations (20) exceeded for all HVAC loops, at ANNUAL, 04/01 23:15 - 23:22
   **   ~~~   ** The solution for one or more of the Air Loop HVAC systems did not appear to converge
   **   ~~~   ** Air System Named = CENTRAL SYSTEM did not converge for mass flow rate
   **   ~~~   ** Check values should be zero. Most Recent values listed first.
   **   ~~~   ** Demand-to-Supply interface mass flow rate check value iteration history trace: 8.274449E-002,8.274449E-002,8.274449E-002,8.274449E-002,8.274449E-002,8.274449E-002,8.274449E-002,8.274449E-002,8.274449E-002,8.274449E-002,
   **   ~~~   ** Supply-to-demand interface deck 1 mass flow rate check value iteration history trace: 8.274449E-002,8.274449E-002,8.274449E-002,8.274449E-002,8.274449E-002,8.274449E-002,8.274449E-002,8.274449E-002,8.274449E-002,8.274449E-002,
   **   ~~~   ** Air System Named = CENTRAL SYSTEM did not converge for energy
   **   ~~~   ** Check values should be zero. Most Recent values listed first.
   **   ~~~   ** Demand-to-Supply interface energy check value iteration history trace: 1536.182783,1536.182783,1536.182783,1536.182783,1536.182782,1536.182782,1536.182782,1536.182782,1536.182782,1536.182782,
   **   ~~~   ** Supply-to-demand interface deck 1 energy check value iteration history trace: 2437.134034,2437.134034,2437.134034,2437.134033,2437.134033,2437.134033,2437.134033,2437.134033,2437.134033,2437.134033,
   ** Warning ** SimHVAC: Maximum iterations (20) exceeded for all HVAC loops, at ANNUAL, 04/11 11:30 - 11:38
   **   ~~~   ** The solution for one or more of the Air Loop HVAC systems did not appear to converge
   **   ~~~   ** Air System Named = CENTRAL SYSTEM did not converge for mass flow rate
   **   ~~~   ** Check values should be zero. Most Recent values listed first.
   **   ~~~   ** Demand-to-Supply interface mass flow rate check value iteration history trace: 6.212696E-002,6.212696E-002,6.212696E-002,6.212696E-002,6.212696E-002,6.212696E-002,6.212696E-002,6.212696E-002,6.212696E-002,6.212696E-002,
   **   ~~~   ** Supply-to-demand interface deck 1 mass flow rate check value iteration history trace: 6.212696E-002,6.212696E-002,6.212696E-002,6.212696E-002,6.212696E-002,6.212696E-002,6.212696E-002,6.212696E-002,6.212696E-002,6.212696E-002,
   **   ~~~   ** Air System Named = CENTRAL SYSTEM did not converge for energy
   **   ~~~   ** Check values should be zero. Most Recent values listed first.
   **   ~~~   ** Demand-to-Supply interface energy check value iteration history trace: 1232.004683,1232.004683,1232.004683,1232.004683,1232.004683,1232.004683,1232.004683,1232.004683,1232.004683,1232.004682,
   **   ~~~   ** Supply-to-demand interface deck 1 energy check value iteration history trace: 2166.132520,2166.132520,2166.132520,2166.132520,2166.132520,2166.132520,2166.132520,2166.132520,2166.132520,2166.132519,
   ** Warning ** SimHVAC: Maximum iterations (20) exceeded for all HVAC loops, at ANNUAL, 04/27 09:15 - 09:30
   **   ~~~   ** The solution for one or more of the Air Loop HVAC systems did not appear to converge
   **   ~~~   ** Air System Named = CENTRAL SYSTEM did not converge for mass flow rate
   **   ~~~   ** Check values should be zero. Most Recent values listed first.
   **   ~~~   ** Demand-to-Supply interface mass flow rate check value iteration history trace: 7.032094E-002,7.032094E-002,7.032094E-002,7.032094E-002,7.032094E-002,7.032094E-002,7.032094E-002,7.032094E-002,7.032094E-002,7.032094E-002,
   **   ~~~   ** Supply-to-demand interface deck 1 mass flow rate check value iteration history trace: 7.032094E-002,7.032094E-002,7.032094E-002,7.032094E-002,7.032094E-002,7.032094E-002,7.032094E-002,7.032094E-002,7.032094E-002,7.032094E-002,
   **   ~~~   ** Air System Named = CENTRAL SYSTEM did not converge for energy
   **   ~~~   ** Check values should be zero. Most Recent values listed first.
   **   ~~~   ** Demand-to-Supply interface energy check value iteration history trace: 1393.661453,1393.661453,1393.661453,1393.661453,1393.661453,1393.661453,1393.661453,1393.661453,1393.661453,1393.661453,
   **   ~~~   ** Supply-to-demand interface deck 1 energy check value iteration history trace: 2500.549326,2500.549326,2500.549326,2500.549326,2500.549325,2500.549325,2500.549325,2500.549325,2500.549325,2500.549325,
   ** Warning ** SimHVAC: Maximum iterations (20) exceeded for all HVAC loops, at ANNUAL, 06/02 21:45 - 22:00
   **   ~~~   ** The solution for one or more of the Air Loop HVAC systems did not appear to converge
   **   ~~~   ** Air System Named = CENTRAL SYSTEM did not converge for mass flow rate
   **   ~~~   ** Check values should be zero. Most Recent values listed first.
   **   ~~~   ** Demand-to-Supply interface mass flow rate check value iteration history trace: 6.428327E-002,6.428327E-002,6.428327E-002,6.428327E-002,6.428327E-002,6.428327E-002,6.428327E-002,6.428327E-002,6.428327E-002,6.428327E-002,
   **   ~~~   ** Supply-to-demand interface deck 1 mass flow rate check value iteration history trace: 6.428327E-002,6.428327E-002,6.428327E-002,6.428327E-002,6.428327E-002,6.428327E-002,6.428327E-002,6.428327E-002,6.428327E-002,6.428327E-002,
   **   ~~~   ** Air System Named = CENTRAL SYSTEM did not converge for energy
   **   ~~~   ** Check values should be zero. Most Recent values listed first.
   **   ~~~   ** Demand-to-Supply interface energy check value iteration history trace: 1517.115367,1517.115367,1517.115367,1517.115367,1517.115368,1517.115368,1517.115368,1517.115368,1517.115368,1517.115368,
   **   ~~~   ** Supply-to-demand interface deck 1 energy check value iteration history trace: 557.044097,557.044097,557.044097,557.044097,557.044097,557.044097,557.044097,557.044097,557.044098,557.044098,
   ** Warning ** SimHVAC: Maximum iterations (20) exceeded for all HVAC loops, at ANNUAL, 10/10 21:00 - 21:15
   **   ~~~   ** The solution for one or more of the Air Loop HVAC systems did not appear to converge
   **   ~~~   ** Air System Named = CENTRAL SYSTEM did not converge for mass flow rate
   **   ~~~   ** Check values should be zero. Most Recent values listed first.
   **   ~~~   ** Demand-to-Supply interface mass flow rate check value iteration history trace: 9.765570E-002,9.765570E-002,9.765570E-002,9.765570E-002,9.765570E-002,9.765570E-002,9.765570E-002,9.765570E-002,9.765570E-002,9.765570E-002,
   **   ~~~   ** Supply-to-demand interface deck 1 mass flow rate check value iteration history trace: 9.765570E-002,9.765570E-002,9.765570E-002,9.765570E-002,9.765570E-002,9.765570E-002,9.765570E-002,9.765570E-002,9.765570E-002,9.765570E-002,
   **   ~~~   ** Air System Named = CENTRAL SYSTEM did not converge for energy
   **   ~~~   ** Check values should be zero. Most Recent values listed first.
   **   ~~~   ** Demand-to-Supply interface energy check value iteration history trace: 2344.171891,2344.171891,2344.171891,2344.171891,2344.171891,2344.171891,2344.171892,2344.171892,2344.171892,2344.171892,
   **   ~~~   ** Supply-to-demand interface deck 1 energy check value iteration history trace: 973.276245,973.276245,973.276245,973.276245,973.276246,973.276246,973.276246,973.276246,973.276246,973.276246,
   ** Warning ** SimHVAC: Maximum iterations (20) exceeded for all HVAC loops, at ANNUAL, 10/22 08:15 - 08:30
   **   ~~~   ** The solution for one or more of the Air Loop HVAC systems did not appear to converge
   **   ~~~   ** Air System Named = CENTRAL SYSTEM did not converge for mass flow rate
   **   ~~~   ** Check values should be zero. Most Recent values listed first.
   **   ~~~   ** Demand-to-Supply interface mass flow rate check value iteration history trace: 6.055622E-002,6.055622E-002,6.055622E-002,6.055622E-002,6.055622E-002,6.055622E-002,6.055622E-002,6.055622E-002,6.055622E-002,6.055622E-002,
   **   ~~~   ** Supply-to-demand interface deck 1 mass flow rate check value iteration history trace: 6.055622E-002,6.055622E-002,6.055622E-002,6.055622E-002,6.055622E-002,6.055622E-002,6.055622E-002,6.055622E-002,6.055622E-002,6.055622E-002,
   **   ~~~   ** Air System Named = CENTRAL SYSTEM did not converge for energy
   **   ~~~   ** Check values should be zero. Most Recent values listed first.
   **   ~~~   ** Demand-to-Supply interface energy check value iteration history trace: 1200.989351,1200.989350,1200.989350,1200.989350,1200.989350,1200.989350,1200.989350,1200.989350,1200.989350,1200.989350,
   **   ~~~   ** Supply-to-demand interface deck 1 energy check value iteration history trace: 2102.214432,2102.214432,2102.214431,2102.214431,2102.214431,2102.214431,2102.214431,2102.214431,2102.214431,2102.214431,
   ** Warning ** SimHVAC: Maximum iterations (20) exceeded for all HVAC loops, at ANNUAL, 10/28 23:15 - 23:30
   **   ~~~   ** The solution for one or more of the Air Loop HVAC systems did not appear to converge
   **   ~~~   ** Air System Named = CENTRAL SYSTEM did not converge for mass flow rate
   **   ~~~   ** Check values should be zero. Most Recent values listed first.
   **   ~~~   ** Demand-to-Supply interface mass flow rate check value iteration history trace: 8.942120E-002,8.942120E-002,8.942120E-002,8.942120E-002,8.942120E-002,8.942120E-002,8.942120E-002,8.942120E-002,8.942120E-002,8.942120E-002,
   **   ~~~   ** Supply-to-demand interface deck 1 mass flow rate check value iteration history trace: 8.942120E-002,8.942120E-002,8.942120E-002,8.942120E-002,8.942120E-002,8.942120E-002,8.942120E-002,8.942120E-002,8.942120E-002,8.942120E-002,
   **   ~~~   ** Air System Named = CENTRAL SYSTEM did not converge for energy
   **   ~~~   ** Check values should be zero. Most Recent values listed first.
   **   ~~~   ** Demand-to-Supply interface energy check value iteration history trace: 1700.798366,1700.798366,1700.798366,1700.798366,1700.798365,1700.798365,1700.798365,1700.798365,1700.798365,1700.798365,
   **   ~~~   ** Supply-to-demand interface deck 1 energy check value iteration history trace: 2595.654404,2595.654404,2595.654404,2595.654404,2595.654404,2595.654403,2595.654403,2595.654403,2595.654403,2595.654403,
   ** Warning ** SimHVAC: Maximum iterations (20) exceeded for all HVAC loops, at ANNUAL, 11/01 00:05 - 00:10
   **   ~~~   ** The solution for one or more of the Air Loop HVAC systems did not appear to converge
   **   ~~~   ** Air System Named = CENTRAL SYSTEM did not converge for mass flow rate
   **   ~~~   ** Check values should be zero. Most Recent values listed first.
   **   ~~~   ** Demand-to-Supply interface mass flow rate check value iteration history trace: 6.770779E-002,6.770779E-002,6.770779E-002,6.770779E-002,6.770779E-002,6.770779E-002,6.770779E-002,6.770779E-002,6.770779E-002,6.770779E-002,
   **   ~~~   ** Supply-to-demand interface deck 1 mass flow rate check value iteration history trace: 6.770779E-002,6.770779E-002,6.770779E-002,6.770779E-002,6.770779E-002,6.770779E-002,6.770779E-002,6.770779E-002,6.770779E-002,6.770779E-002,
   **   ~~~   ** Air System Named = CENTRAL SYSTEM did not converge for energy
   **   ~~~   ** Check values should be zero. Most Recent values listed first.
   **   ~~~   ** Demand-to-Supply interface energy check value iteration history trace: 1263.291562,1263.291562,1263.291561,1263.291561,1263.291561,1263.291561,1263.291561,1263.291561,1263.291561,1263.291561,
   **   ~~~   ** Supply-to-demand interface deck 1 energy check value iteration history trace: 2001.835359,2001.835359,2001.835359,2001.835359,2001.835359,2001.835358,2001.835358,2001.835358,2001.835358,2001.835358,
   ** Warning ** SimHVAC: Maximum iterations (20) exceeded for all HVAC loops, at ANNUAL, 11/06 19:23 - 19:30
   **   ~~~   ** The solution for one or more of the Air Loop HVAC systems did not appear to converge
   **   ~~~   ** Air System Named = CENTRAL SYSTEM did not converge for mass flow rate
   **   ~~~   ** Check values should be zero. Most Recent values listed first.
   **   ~~~   ** Demand-to-Supply interface mass flow rate check value iteration history trace: 9.576600E-002,9.576600E-002,9.576600E-002,9.576600E-002,9.576600E-002,9.576600E-002,9.576600E-002,9.576600E-002,9.576600E-002,9.576600E-002,
   **   ~~~   ** Supply-to-demand interface deck 1 mass flow rate check value iteration history trace: 9.576600E-002,9.576600E-002,9.576600E-002,9.576600E-002,9.576600E-002,9.576600E-002,9.576600E-002,9.576600E-002,9.576600E-002,9.576600E-002,
   **   ~~~   ** Air System Named = CENTRAL SYSTEM did not converge for energy
   **   ~~~   ** Check values should be zero. Most Recent values listed first.
   **   ~~~   ** Demand-to-Supply interface energy check value iteration history trace: 1898.164311,1898.164311,1898.164310,1898.164310,1898.164310,1898.164310,1898.164310,1898.164310,1898.164310,1898.164310,
   **   ~~~   ** Supply-to-demand interface deck 1 energy check value iteration history trace: 2926.809035,2926.809035,2926.809035,2926.809035,2926.809034,2926.809034,2926.809034,2926.809034,2926.809034,2926.809034,
   ************* Simulation Error Summary *************
   ** Warning ** The following Report Variables were requested but not generated -- check.rdd file
   **   ~~~   ** Either the IDF did not contain these elements, the variable name is misspelled,
   **   ~~~   ** or the requested variable is an advanced output which requires Output : Diagnostics, DisplayAdvancedReportVariables;
   ************* Key=*, VarName=BASEBOARD TOTAL HEATING ENERGY, Frequency=
   ************* Key=*, VarName=WATER HEATER NATURALGAS ENERGY, Frequency=
   ************* Key=*, VarName=COOLING COIL TOTAL HEATING ENERGY, Frequency=
   ************* There are 34 unused schedules in input.
   ************* There are 388 unused week schedules in input.
   ************* There are 397 unused day schedules in input.
   ************* Use Output:Diagnostics,DisplayUnusedSchedules; to see them.
   *************
   ************* ===== Recurring Error Summary =====
   ************* The following recurring error messages occurred.
   *************
   *************  ** Warning ** "TOTAL HOT WATER LOAD" - Target water temperature should be less than or equal to the hot water temperature error continues...
   *************  **   ~~~   **   This error occurred 89207 total times;
   *************  **   ~~~   **   during Warmup 0 times;
   *************  **   ~~~   **   during Sizing 0 times.
   *************  **   ~~~   **   Max=9.659421  Min=2.980489E-003
   *************
   *************
   ************* ===== Final Error Summary =====
   ************* The following error categories occurred.  Consider correcting or noting.
   ************* Nominally Unused Constructions
   ************* ..The nominally unused constructions warning is provided to alert you to potential conditions that can cause
   ************* ..extra time during simulation. Each construction is calculated by the algorithm indicated in the HeatBalanceAlgorithm
   ************* ..object. You may remove the constructions indicated (when you use the DisplayExtraWarnings option).
   *************
   ************* EnergyPlus Warmup Error Summary. During Warmup: 1 Warning; 0 Severe Errors.
   ************* EnergyPlus Sizing Error Summary. During Sizing: 4 Warning; 0 Severe Errors.
   ************* EnergyPlus Completed Successfully-- 89238 Warning; 0 Severe Errors; Elapsed Time=00hr 01min 30.09sec
