Program Version,EnergyPlus, Version 22.2.0-c249759bad, YMD=2023.09.01 19:41,
   ************* Beginning Zone Sizing Calculations
   ** Warning ** ProcessScheduleInput: Schedule:Constant="ALWAYS ON DISCRETE", Schedule Type Limits Name="ONOFF" not found -- will not be validated
   ** Warning ** Foundation:Kiva="KIVA FOUNDATION", no Interior Horizontal Insulation Material Name defined
   **   ~~~   ** Interior Horizontal Insulation Depth will not be used.
   ** Warning ** CheckUsedConstructions: There are 15 nominally unused constructions in input.
   **   ~~~   ** Each Unused construction is shown.
   ************* Construction=INTERIOR FLOOR
   ************* Construction=INTERIOR WINDOW
   ************* Construction=EXTERIOR DOOR
   ************* Construction=INTERIOR DOOR
   ************* Construction=GABLE CONSTRUCTION
   ************* Construction=CRAWL_FLOOR
   ************* Construction=INSULATED PIPE
   ************* Construction=PLAIN PIPE
   ************* Construction=TDD PIPE
   ************* Construction=TDD DOME
   ************* Construction=TDD DIFFUSER
   ************* Construction=CRAWL WALL
   ************* Construction=CEILING-FLOOR-LAYER
   ************* Construction=SLAB CONSTRUCTION W FULL R10 INSULATION
   ************* Construction=SLAB CONSTRUCTION W FULL R5 INSULATION
   ** Warning ** GetDXCoils: Coil:Heating:DX:SingleSpeed="DX_HEATING_COIL" curve values
   **   ~~~   ** ... Defrost Energy Input Ratio Function of Temperature Curve Name = DEFROSTEIR output is not equal to 1.0 (+ or - 10%) at rated conditions.
   **   ~~~   ** ... Curve output at rated conditions = 0.152
   ************* Beginning System Sizing Calculations
   ************* Beginning Plant Sizing Calculations
   ** Warning ** SizeDXCoil Coil:Cooling:DX:SingleSpeed DX_COOLING_COIL
   **   ~~~   ** ...Gross Rated Total Cooling Capacity [W] will be limited by the maximum rated volume flow per rated total capacity ratio.
   **   ~~~   ** ...DX coil volume flow rate ( m3/s ) = 0.514451
   **   ~~~   ** ...Requested capacity ( W ) = 7024.064
   **   ~~~   ** ...Requested flow/capacity ratio ( m3/s/W ) = 7.324E-005
   **   ~~~   ** ...Maximum flow/capacity ratio ( m3/s/W ) = 6.041E-005
   **   ~~~   ** ...Adjusted capacity ( W ) = 8515.998
   ** Warning ** Coil:WaterHeating:AirToWaterHeatPump:Wrapped "HEAT PUMP WATER HEATER EVAPORATOR": Rated air volume flow rate per watt of rated total water heating capacity is out of range
   **   ~~~   ** Min Rated Vol Flow Per Watt=[4.027E-005], Rated Vol Flow Per Watt=[1.510E-004], Max Rated Vol Flow Per Watt=[8.056E-005]. See Input-Output Reference Manual for valid range.
   ************* SizeFan: : Potential issue with equipment sizing for Fan:OnOff HEAT PUMP WATER HEATER FAN
   **   ~~~   ** User-Specified Maximum Flow Rate [m3/s] = 0.22653
   **   ~~~   ** differs from Design Size Maximum Flow Rate [m3/s] = 7.55250E-002
   **   ~~~   ** This may, or may not, indicate mismatched component sizes.
   **   ~~~   ** Verify that the value entered is intended and is consistent with other components.
   ** Warning ** Water heater = WATER HEATER TANK:  Recovery Efficiency and Energy Factor could not be calculated during the test for standard ratings
   **   ~~~   ** Setpoint was never recovered and/or heater never turned on
   ** Warning ** Check input. Pump nominal power or motor efficiency is set to 0, for pump=MAINS PRESSURE
   ** Warning ** Output:Meter: invalid Key Name="ELECTRIC_RANGE:INTERIOREQUIPMENT:ELECTRICITY" - not found.
   ** Warning ** Output:Meter: invalid Key Name="ELECTRIC_DRYER:INTERIOREQUIPMENT:ELECTRICITY" - not found.
   ** Warning ** Output:Meter: invalid Key Name="HEATRECOVERY:ELECTRICITY" - not found.
   ** Warning ** Output:Meter: invalid Key Name="HEATING:NATURALGAS" - not found.
   ** Warning ** Output:Meter: invalid Key Name="WATERSYSTEMS:NATURALGAS" - not found.
   ** Warning ** Output:Meter: invalid Key Name="PROPANE:FACILITY" - not found.
   ** Warning ** Output:Meter: invalid Key Name="HEATING:PROPANE" - not found.
   ************* Testing Individual Branch Integrity
   ************* All Branches passed integrity testing
   ************* Testing Individual Supply Air Path Integrity
   ************* All Supply Air Paths passed integrity testing
   ************* Testing Individual Return Air Path Integrity
   ************* All Return Air Paths passed integrity testing
   ************* No node connection errors were found.
   ************* Beginning Simulation
   ** Warning ** AirflowNetwork::Solver::validate_distribution: Heat pump water heater is simulated along with an AirflowNetwork but is not included in the AirflowNetwork.
   ** Warning ** CalcEquipmentFlowRates: "TOTAL HOT WATER LOAD" - Target water temperature is greater than the hot water temperature by (4.24 C)
   **   ~~~   **  Environment=EXTREME_WINTER, at Simulation time=01/13 06:00 - 06:15
   **   ~~~   ** ...target water temperature     = 53.33 C
   **   ~~~   ** ...hot water temperature        = 49.09 C
   **   ~~~   ** ...Target water temperature should be less than or equal to the hot water temperature. Verify temperature setpoints and schedules.
   ** Warning ** SimHVAC: Maximum iterations (20) exceeded for all HVAC loops, at EXTREME_WINTER, 01/15 18:20 - 18:25
   **   ~~~   ** The solution for one or more of the Air Loop HVAC systems did not appear to converge
   **   ~~~   ** Air System Named = CENTRAL SYSTEM did not converge for mass flow rate
   **   ~~~   ** Check values should be zero. Most Recent values listed first.
   **   ~~~   ** Demand-to-Supply interface mass flow rate check value iteration history trace: 6.880390E-002,6.880390E-002,6.880390E-002,6.880390E-002,6.880390E-002,6.880390E-002,6.880390E-002,6.880390E-002,6.880390E-002,6.880390E-002,
   **   ~~~   ** Supply-to-demand interface deck 1 mass flow rate check value iteration history trace: 6.880390E-002,6.880390E-002,6.880390E-002,6.880390E-002,6.880390E-002,6.880390E-002,6.880390E-002,6.880390E-002,6.880390E-002,6.880390E-002,
   **   ~~~   ** Air System Named = CENTRAL SYSTEM did not converge for energy
   **   ~~~   ** Check values should be zero. Most Recent values listed first.
   **   ~~~   ** Demand-to-Supply interface energy check value iteration history trace: 1362.742518,1362.742518,1362.742518,1362.742518,1362.742518,1362.742518,1362.742518,1362.742518,1362.742518,1362.742518,
   **   ~~~   ** Supply-to-demand interface deck 1 energy check value iteration history trace: 2215.579841,2215.579841,2215.579841,2215.579841,2215.579841,2215.579841,2215.579841,2215.579840,2215.579840,2215.579840,
   ** Warning ** SimHVAC: Maximum iterations (20) exceeded for all HVAC loops, at EXTREME_WINTER, 01/17 11:17 - 11:20
   **   ~~~   ** The solution for one or more of the Air Loop HVAC systems did not appear to converge
   **   ~~~   ** Air System Named = CENTRAL SYSTEM did not converge for mass flow rate
   **   ~~~   ** Check values should be zero. Most Recent values listed first.
   **   ~~~   ** Demand-to-Supply interface mass flow rate check value iteration history trace: 5.909021E-002,5.909021E-002,5.909021E-002,5.909021E-002,5.909021E-002,5.909021E-002,5.909021E-002,5.909021E-002,5.909021E-002,5.909021E-002,
   **   ~~~   ** Supply-to-demand interface deck 1 mass flow rate check value iteration history trace: 5.909021E-002,5.909021E-002,5.909021E-002,5.909021E-002,5.909021E-002,5.909021E-002,5.909021E-002,5.909021E-002,5.909021E-002,5.909021E-002,
   **   ~~~   ** Air System Named = CENTRAL SYSTEM did not converge for energy
   **   ~~~   ** Check values should be zero. Most Recent values listed first.
   **   ~~~   ** Demand-to-Supply interface energy check value iteration history trace: 1169.297768,1169.297768,1169.297768,1169.297768,1169.297768,1169.297768,1169.297768,1169.297767,1169.297767,1169.297767,
   **   ~~~   ** Supply-to-demand interface deck 1 energy check value iteration history trace: 1908.241024,1908.241024,1908.241024,1908.241024,1908.241023,1908.241023,1908.241023,1908.241023,1908.241023,1908.241023,
   ** Warning ** SimHVAC: Maximum iterations (20) exceeded for all HVAC loops, at EXTREME_WINTER, 01/18 20:45 - 20:50
   **   ~~~   ** The solution for one or more of the Air Loop HVAC systems did not appear to converge
   **   ~~~   ** Air System Named = CENTRAL SYSTEM did not converge for mass flow rate
   **   ~~~   ** Check values should be zero. Most Recent values listed first.
   **   ~~~   ** Demand-to-Supply interface mass flow rate check value iteration history trace: 7.552711E-002,7.552711E-002,7.552711E-002,7.552711E-002,7.552711E-002,7.552711E-002,7.552711E-002,7.552711E-002,7.552711E-002,7.552711E-002,
   **   ~~~   ** Supply-to-demand interface deck 1 mass flow rate check value iteration history trace: 7.552711E-002,7.552711E-002,7.552711E-002,7.552711E-002,7.552711E-002,7.552711E-002,7.552711E-002,7.552711E-002,7.552711E-002,7.552711E-002,
   **   ~~~   ** Air System Named = CENTRAL SYSTEM did not converge for energy
   **   ~~~   ** Check values should be zero. Most Recent values listed first.
   **   ~~~   ** Demand-to-Supply interface energy check value iteration history trace: 1494.951618,1494.951618,1494.951618,1494.951618,1494.951618,1494.951618,1494.951617,1494.951617,1494.951617,1494.951617,
   **   ~~~   ** Supply-to-demand interface deck 1 energy check value iteration history trace: 2307.923449,2307.923448,2307.923448,2307.923448,2307.923448,2307.923448,2307.923448,2307.923447,2307.923447,2307.923447,
   ** Warning ** SimHVAC: Maximum iterations (20) exceeded for all HVAC loops, at ANNUAL, 01/04 10:15 - 10:17
   **   ~~~   ** The solution for one or more of the Air Loop HVAC systems did not appear to converge
   **   ~~~   ** Air System Named = CENTRAL SYSTEM did not converge for mass flow rate
   **   ~~~   ** Check values should be zero. Most Recent values listed first.
   **   ~~~   ** Demand-to-Supply interface mass flow rate check value iteration history trace: 4.453376E-002,4.453376E-002,4.453376E-002,4.453376E-002,4.453376E-002,4.453376E-002,4.453376E-002,4.453376E-002,4.453376E-002,4.453376E-002,
   **   ~~~   ** Supply-to-demand interface deck 1 mass flow rate check value iteration history trace: 4.453376E-002,4.453376E-002,4.453376E-002,4.453376E-002,4.453376E-002,4.453376E-002,4.453376E-002,4.453376E-002,4.453376E-002,4.453376E-002,
   **   ~~~   ** Air System Named = CENTRAL SYSTEM did not converge for energy
   **   ~~~   ** Check values should be zero. Most Recent values listed first.
   **   ~~~   ** Demand-to-Supply interface energy check value iteration history trace: 881.256644,881.256644,881.256644,881.256644,881.256644,881.256644,881.256644,881.256644,881.256644,881.256644,
   **   ~~~   ** Supply-to-demand interface deck 1 energy check value iteration history trace: 1637.465686,1637.465686,1637.465686,1637.465686,1637.465686,1637.465686,1637.465686,1637.465686,1637.465686,1637.465686,
   ** Warning ** SimHVAC: Maximum iterations (20) exceeded for all HVAC loops, at ANNUAL, 01/10 09:45 - 10:00
   **   ~~~   ** The solution for one or more of the Air Loop HVAC systems did not appear to converge
   **   ~~~   ** Air System Named = CENTRAL SYSTEM did not converge for mass flow rate
   **   ~~~   ** Check values should be zero. Most Recent values listed first.
   **   ~~~   ** Demand-to-Supply interface mass flow rate check value iteration history trace: 4.600071E-002,4.600071E-002,4.600071E-002,4.600071E-002,4.600071E-002,4.600071E-002,4.600071E-002,4.600071E-002,4.600071E-002,4.600071E-002,
   **   ~~~   ** Supply-to-demand interface deck 1 mass flow rate check value iteration history trace: 4.600071E-002,4.600071E-002,4.600071E-002,4.600071E-002,4.600071E-002,4.600071E-002,4.600071E-002,4.600071E-002,4.600071E-002,4.600071E-002,
   **   ~~~   ** Air System Named = CENTRAL SYSTEM did not converge for energy
   **   ~~~   ** Check values should be zero. Most Recent values listed first.
   **   ~~~   ** Demand-to-Supply interface energy check value iteration history trace: 911.589560,911.589560,911.589560,911.589560,911.589559,911.589559,911.589559,911.589559,911.589559,911.589559,
   **   ~~~   ** Supply-to-demand interface deck 1 energy check value iteration history trace: 1641.254115,1641.254115,1641.254115,1641.254115,1641.254115,1641.254115,1641.254114,1641.254114,1641.254114,1641.254114,
   ** Warning ** SimHVAC: Maximum iterations (20) exceeded for all HVAC loops, at ANNUAL, 01/25 09:00 - 09:02
   **   ~~~   ** The solution for one or more of the Air Loop HVAC systems did not appear to converge
   **   ~~~   ** Air System Named = CENTRAL SYSTEM did not converge for mass flow rate
   **   ~~~   ** Check values should be zero. Most Recent values listed first.
   **   ~~~   ** Demand-to-Supply interface mass flow rate check value iteration history trace: 5.717421E-002,5.717421E-002,5.717421E-002,5.717421E-002,5.717421E-002,5.717421E-002,5.717421E-002,5.717421E-002,5.717421E-002,5.717421E-002,
   **   ~~~   ** Supply-to-demand interface deck 1 mass flow rate check value iteration history trace: 5.717421E-002,5.717421E-002,5.717421E-002,5.717421E-002,5.717421E-002,5.717421E-002,5.717421E-002,5.717421E-002,5.717421E-002,5.717421E-002,
   **   ~~~   ** Air System Named = CENTRAL SYSTEM did not converge for energy
   **   ~~~   ** Check values should be zero. Most Recent values listed first.
   **   ~~~   ** Demand-to-Supply interface energy check value iteration history trace: 1132.998144,1132.998144,1132.998144,1132.998144,1132.998144,1132.998144,1132.998144,1132.998144,1132.998144,1132.998144,
   **   ~~~   ** Supply-to-demand interface deck 1 energy check value iteration history trace: 2062.330931,2062.330931,2062.330931,2062.330931,2062.330931,2062.330930,2062.330930,2062.330930,2062.330930,2062.330930,
   ** Warning ** SimHVAC: Maximum iterations (20) exceeded for all HVAC loops, at ANNUAL, 01/26 10:07 - 10:08
   **   ~~~   ** The solution for one or more of the Air Loop HVAC systems did not appear to converge
   **   ~~~   ** Air System Named = CENTRAL SYSTEM did not converge for mass flow rate
   **   ~~~   ** Check values should be zero. Most Recent values listed first.
   **   ~~~   ** Demand-to-Supply interface mass flow rate check value iteration history trace: 1.282653E-002,1.282653E-002,1.282653E-002,1.282653E-002,1.282653E-002,1.282653E-002,1.282653E-002,1.282653E-002,1.282653E-002,1.282653E-002,
   **   ~~~   ** Supply-to-demand interface deck 1 mass flow rate check value iteration history trace: 1.282653E-002,1.282653E-002,1.282653E-002,1.282653E-002,1.282653E-002,1.282653E-002,1.282653E-002,1.282653E-002,1.282653E-002,1.282653E-002,
   **   ~~~   ** Air System Named = CENTRAL SYSTEM did not converge for energy
   **   ~~~   ** Check values should be zero. Most Recent values listed first.
   **   ~~~   ** Demand-to-Supply interface energy check value iteration history trace: 253.809214,253.809214,253.809214,253.809214,253.809214,253.809214,253.809214,253.809214,253.809214,253.809214,
   **   ~~~   ** Supply-to-demand interface deck 1 energy check value iteration history trace: 465.185282,465.185282,465.185282,465.185281,465.185281,465.185281,465.185281,465.185281,465.185281,465.185281,
   ** Warning ** SimHVAC: Maximum iterations (20) exceeded for all HVAC loops, at ANNUAL, 02/13 12:00 - 12:15
   **   ~~~   ** The solution for one or more of the Air Loop HVAC systems did not appear to converge
   **   ~~~   ** Air System Named = CENTRAL SYSTEM did not converge for mass flow rate
   **   ~~~   ** Check values should be zero. Most Recent values listed first.
   **   ~~~   ** Demand-to-Supply interface mass flow rate check value iteration history trace: 4.306781E-002,4.306781E-002,4.306781E-002,4.306781E-002,4.306781E-002,4.306781E-002,4.306781E-002,4.306781E-002,4.306781E-002,4.306781E-002,
   **   ~~~   ** Supply-to-demand interface deck 1 mass flow rate check value iteration history trace: 4.306781E-002,4.306781E-002,4.306781E-002,4.306781E-002,4.306781E-002,4.306781E-002,4.306781E-002,4.306781E-002,4.306781E-002,4.306781E-002,
   **   ~~~   ** Air System Named = CENTRAL SYSTEM did not converge for energy
   **   ~~~   ** Check values should be zero. Most Recent values listed first.
   **   ~~~   ** Demand-to-Supply interface energy check value iteration history trace: 853.463710,853.463710,853.463710,853.463710,853.463710,853.463710,853.463710,853.463710,853.463710,853.463710,
   **   ~~~   ** Supply-to-demand interface deck 1 energy check value iteration history trace: 1585.798018,1585.798018,1585.798018,1585.798018,1585.798018,1585.798018,1585.798018,1585.798018,1585.798018,1585.798018,
   ** Warning ** SimHVAC: Maximum iterations (20) exceeded for all HVAC loops, at ANNUAL, 02/25 10:08 - 10:11
   **   ~~~   ** The solution for one or more of the Air Loop HVAC systems did not appear to converge
   **   ~~~   ** Air System Named = CENTRAL SYSTEM did not converge for mass flow rate
   **   ~~~   ** Check values should be zero. Most Recent values listed first.
   **   ~~~   ** Demand-to-Supply interface mass flow rate check value iteration history trace: 5.211111E-002,5.211111E-002,5.211111E-002,5.211111E-002,5.211111E-002,5.211111E-002,5.211111E-002,5.211111E-002,5.211111E-002,5.211111E-002,
   **   ~~~   ** Supply-to-demand interface deck 1 mass flow rate check value iteration history trace: 5.211111E-002,5.211111E-002,5.211111E-002,5.211111E-002,5.211111E-002,5.211111E-002,5.211111E-002,5.211111E-002,5.211111E-002,5.211111E-002,
   **   ~~~   ** Air System Named = CENTRAL SYSTEM did not converge for energy
   **   ~~~   ** Check values should be zero. Most Recent values listed first.
   **   ~~~   ** Demand-to-Supply interface energy check value iteration history trace: 1029.128206,1029.128206,1029.128206,1029.128206,1029.128206,1029.128206,1029.128206,1029.128206,1029.128206,1029.128206,
   **   ~~~   ** Supply-to-demand interface deck 1 energy check value iteration history trace: 1959.739728,1959.739728,1959.739728,1959.739728,1959.739728,1959.739728,1959.739728,1959.739728,1959.739728,1959.739728,
   ** Warning ** SimHVAC: Maximum iterations (20) exceeded for all HVAC loops, at ANNUAL, 02/26 08:00 - 08:02
   **   ~~~   ** The solution for one or more of the Air Loop HVAC systems did not appear to converge
   **   ~~~   ** Air System Named = CENTRAL SYSTEM did not converge for mass flow rate
   **   ~~~   ** Check values should be zero. Most Recent values listed first.
   **   ~~~   ** Demand-to-Supply interface mass flow rate check value iteration history trace: 5.891425E-002,5.891425E-002,5.891425E-002,5.891425E-002,5.891425E-002,5.891425E-002,5.891425E-002,5.891425E-002,5.891425E-002,5.891425E-002,
   **   ~~~   ** Supply-to-demand interface deck 1 mass flow rate check value iteration history trace: 5.891425E-002,5.891425E-002,5.891425E-002,5.891425E-002,5.891425E-002,5.891425E-002,5.891425E-002,5.891425E-002,5.891425E-002,5.891425E-002,
   **   ~~~   ** Air System Named = CENTRAL SYSTEM did not converge for energy
   **   ~~~   ** Check values should be zero. Most Recent values listed first.
   **   ~~~   ** Demand-to-Supply interface energy check value iteration history trace: 1167.725611,1167.725611,1167.725611,1167.725611,1167.725611,1167.725611,1167.725611,1167.725611,1167.725611,1167.725611,
   **   ~~~   ** Supply-to-demand interface deck 1 energy check value iteration history trace: 2066.989585,2066.989585,2066.989585,2066.989585,2066.989585,2066.989585,2066.989585,2066.989585,2066.989585,2066.989585,
   ** Warning ** SimHVAC: Maximum iterations (20) exceeded for all HVAC loops, at ANNUAL, 02/26 08:54 - 08:57
   **   ~~~   ** The solution for one or more of the Air Loop HVAC systems did not appear to converge
   **   ~~~   ** Air System Named = CENTRAL SYSTEM did not converge for mass flow rate
   **   ~~~   ** Check values should be zero. Most Recent values listed first.
   **   ~~~   ** Demand-to-Supply interface mass flow rate check value iteration history trace: 5.896101E-002,5.896101E-002,5.896101E-002,5.896101E-002,5.896101E-002,5.896101E-002,5.896101E-002,5.896101E-002,5.896101E-002,5.896101E-002,
   **   ~~~   ** Supply-to-demand interface deck 1 mass flow rate check value iteration history trace: 5.896101E-002,5.896101E-002,5.896101E-002,5.896101E-002,5.896101E-002,5.896101E-002,5.896101E-002,5.896101E-002,5.896101E-002,5.896101E-002,
   **   ~~~   ** Air System Named = CENTRAL SYSTEM did not converge for energy
   **   ~~~   ** Check values should be zero. Most Recent values listed first.
   **   ~~~   ** Demand-to-Supply interface energy check value iteration history trace: 1166.650953,1166.650953,1166.650953,1166.650953,1166.650953,1166.650953,1166.650953,1166.650953,1166.650953,1166.650953,
   **   ~~~   ** Supply-to-demand interface deck 1 energy check value iteration history trace: 2152.668502,2152.668502,2152.668502,2152.668502,2152.668502,2152.668502,2152.668501,2152.668501,2152.668501,2152.668501,
   ** Warning ** SimHVAC: Maximum iterations (20) exceeded for all HVAC loops, at ANNUAL, 02/27 11:08 - 11:15
   **   ~~~   ** The solution for one or more of the Air Loop HVAC systems did not appear to converge
   **   ~~~   ** Air System Named = CENTRAL SYSTEM did not converge for mass flow rate
   **   ~~~   ** Check values should be zero. Most Recent values listed first.
   **   ~~~   ** Demand-to-Supply interface mass flow rate check value iteration history trace: 5.053003E-002,5.053003E-002,5.053003E-002,5.053003E-002,5.053003E-002,5.053003E-002,5.053003E-002,5.053003E-002,5.053003E-002,5.053003E-002,
   **   ~~~   ** Supply-to-demand interface deck 1 mass flow rate check value iteration history trace: 5.053003E-002,5.053003E-002,5.053003E-002,5.053003E-002,5.053003E-002,5.053003E-002,5.053003E-002,5.053003E-002,5.053003E-002,5.053003E-002,
   **   ~~~   ** Air System Named = CENTRAL SYSTEM did not converge for energy
   **   ~~~   ** Check values should be zero. Most Recent values listed first.
   **   ~~~   ** Demand-to-Supply interface energy check value iteration history trace: 993.078918,993.078918,993.078918,993.078918,993.078918,993.078918,993.078917,993.078917,993.078917,993.078917,
   **   ~~~   ** Supply-to-demand interface deck 1 energy check value iteration history trace: 1764.732643,1764.732643,1764.732643,1764.732643,1764.732643,1764.732643,1764.732643,1764.732643,1764.732643,1764.732643,
   ** Warning ** SimHVAC: Maximum iterations (20) exceeded for all HVAC loops, at ANNUAL, 03/28 08:00 - 08:15
   **   ~~~   ** The solution for one or more of the Air Loop HVAC systems did not appear to converge
   **   ~~~   ** Air System Named = CENTRAL SYSTEM did not converge for mass flow rate
   **   ~~~   ** Check values should be zero. Most Recent values listed first.
   **   ~~~   ** Demand-to-Supply interface mass flow rate check value iteration history trace: 5.283167E-002,5.283167E-002,5.283167E-002,5.283167E-002,5.283167E-002,5.283167E-002,5.283167E-002,5.283167E-002,5.283167E-002,5.283167E-002,
   **   ~~~   ** Supply-to-demand interface deck 1 mass flow rate check value iteration history trace: 5.283167E-002,5.283167E-002,5.283167E-002,5.283167E-002,5.283167E-002,5.283167E-002,5.283167E-002,5.283167E-002,5.283167E-002,5.283167E-002,
   **   ~~~   ** Air System Named = CENTRAL SYSTEM did not converge for energy
   **   ~~~   ** Check values should be zero. Most Recent values listed first.
   **   ~~~   ** Demand-to-Supply interface energy check value iteration history trace: 1046.942136,1046.942135,1046.942135,1046.942135,1046.942135,1046.942135,1046.942135,1046.942134,1046.942134,1046.942134,
   **   ~~~   ** Supply-to-demand interface deck 1 energy check value iteration history trace: 1952.529431,1952.529431,1952.529430,1952.529430,1952.529430,1952.529429,1952.529429,1952.529429,1952.529428,1952.529428,
   **   ~~~   ** Node named ZONE INLET NODE shows oscillating temperatures across iterations with a repeated value of 36.779404
   **   ~~~   ** Node named ZONE INLET NODE temperature [C] iteration history trace (most recent first): 36.779404,36.779404,36.779404,36.779404,36.779403,36.779403,36.779403,36.779402,36.779402,36.779402,
   ** Warning ** SimHVAC: Maximum iterations (20) exceeded for all HVAC loops, at ANNUAL, 04/07 09:01 - 09:03
   **   ~~~   ** The solution for one or more of the Air Loop HVAC systems did not appear to converge
   **   ~~~   ** Air System Named = CENTRAL SYSTEM did not converge for mass flow rate
   **   ~~~   ** Check values should be zero. Most Recent values listed first.
   **   ~~~   ** Demand-to-Supply interface mass flow rate check value iteration history trace: 6.154260E-002,6.154260E-002,6.154260E-002,6.154260E-002,6.154260E-002,6.154260E-002,6.154260E-002,6.154260E-002,6.154260E-002,6.154260E-002,
   **   ~~~   ** Supply-to-demand interface deck 1 mass flow rate check value iteration history trace: 6.154260E-002,6.154260E-002,6.154260E-002,6.154260E-002,6.154260E-002,6.154260E-002,6.154260E-002,6.154260E-002,6.154260E-002,6.154260E-002,
   **   ~~~   ** Air System Named = CENTRAL SYSTEM did not converge for energy
   **   ~~~   ** Check values should be zero. Most Recent values listed first.
   **   ~~~   ** Demand-to-Supply interface energy check value iteration history trace: 1217.072915,1217.072915,1217.072915,1217.072915,1217.072915,1217.072915,1217.072915,1217.072915,1217.072915,1217.072915,
   **   ~~~   ** Supply-to-demand interface deck 1 energy check value iteration history trace: 2145.756064,2145.756064,2145.756064,2145.756064,2145.756064,2145.756063,2145.756063,2145.756063,2145.756063,2145.756063,
   ** Warning ** WetBulb not converged after 101 iterations(PsyTwbFnTdbWPb)
   **   ~~~   **  Routine=Unknown, Environment=ANNUAL, at Simulation time=05/01 00:15 - 00:20
   **   ~~~   **  Input Temperature = 5.77
   **   ~~~   **  Input Humidity Ratio= 2.030789E-003
   **   ~~~   **  Input Pressure = 87709.75
   **   ~~~   **  Resultant Temperature= 8.92E-002
   ************* Simulation Error Summary *************
   ** Warning ** The following Report Variables were requested but not generated -- check.rdd file
   **   ~~~   ** Either the IDF did not contain these elements, the variable name is misspelled,
   **   ~~~   ** or the requested variable is an advanced output which requires Output : Diagnostics, DisplayAdvancedReportVariables;
   ************* Key=*, VarName=BASEBOARD TOTAL HEATING ENERGY, Frequency=
   ************* Key=*, VarName=WATER HEATER NATURALGAS ENERGY, Frequency=
   ************* Key=*, VarName=COOLING COIL TOTAL HEATING ENERGY, Frequency=
   ************* There are 34 unused schedules in input.
   ************* There are 388 unused week schedules in input.
   ************* There are 396 unused day schedules in input.
   ************* Use Output:Diagnostics,DisplayUnusedSchedules; to see them.
   *************
   ************* ===== Recurring Error Summary =====
   ************* The following recurring error messages occurred.
   *************
   *************  ** Warning ** "TOTAL HOT WATER LOAD" - Target water temperature should be less than or equal to the hot water temperature error continues...
   *************  **   ~~~   **   This error occurred 186519 total times;
   *************  **   ~~~   **   during Warmup 0 times;
   *************  **   ~~~   **   during Sizing 0 times.
   *************  **   ~~~   **   Max=12.015571  Min=8.464868E-004
   *************
   *************  ** Warning ** SimHVAC: Exceeding Maximum iterations for all HVAC loops, during ANNUAL continues
   *************  **   ~~~   **   This error occurred 27 total times;
   *************  **   ~~~   **   during Warmup 0 times;
   *************  **   ~~~   **   during Sizing 0 times.
   *************
   *************  ** Warning ** WetBulb not converged after max iterations(PsyTwbFnTdbWPb)
   *************  **   ~~~   **   This error occurred 1 total times;
   *************  **   ~~~   **   during Warmup 0 times;
   *************  **   ~~~   **   during Sizing 0 times.
   *************
   *************
   ************* ===== Final Error Summary =====
   ************* The following error categories occurred.  Consider correcting or noting.
   ************* Nominally Unused Constructions
   ************* ..The nominally unused constructions warning is provided to alert you to potential conditions that can cause
   ************* ..extra time during simulation. Each construction is calculated by the algorithm indicated in the HeatBalanceAlgorithm
   ************* ..object. You may remove the constructions indicated (when you use the DisplayExtraWarnings option).
   *************
   ************* EnergyPlus Warmup Error Summary. During Warmup: 1 Warning; 0 Severe Errors.
   ************* EnergyPlus Sizing Error Summary. During Sizing: 4 Warning; 0 Severe Errors.
   ************* EnergyPlus Completed Successfully-- 186579 Warning; 0 Severe Errors; Elapsed Time=00hr 02min  0.64sec
