Program Version,EnergyPlus, Version 22.2.0-c249759bad, YMD=2023.09.01 19:39,
   ************* Beginning Zone Sizing Calculations
   ** Warning ** ProcessScheduleInput: Schedule:Constant="ALWAYS ON DISCRETE", Schedule Type Limits Name="ONOFF" not found -- will not be validated
   ** Warning ** Foundation:Kiva="KIVA FOUNDATION", no Interior Horizontal Insulation Material Name defined
   **   ~~~   ** Interior Horizontal Insulation Depth will not be used.
   ** Warning ** CheckUsedConstructions: There are 15 nominally unused constructions in input.
   **   ~~~   ** Each Unused construction is shown.
   ************* Construction=INTERIOR FLOOR
   ************* Construction=INTERIOR WINDOW
   ************* Construction=EXTERIOR DOOR
   ************* Construction=INTERIOR DOOR
   ************* Construction=GABLE CONSTRUCTION
   ************* Construction=CRAWL_FLOOR
   ************* Construction=INSULATED PIPE
   ************* Construction=PLAIN PIPE
   ************* Construction=TDD PIPE
   ************* Construction=TDD DOME
   ************* Construction=TDD DIFFUSER
   ************* Construction=CRAWL WALL
   ************* Construction=CEILING-FLOOR-LAYER
   ************* Construction=SLAB CONSTRUCTION W FULL R10 INSULATION
   ************* Construction=SLAB CONSTRUCTION W FULL R5 INSULATION
   ** Warning ** GetDXCoils: Coil:Heating:DX:SingleSpeed="DX_HEATING_COIL" curve values
   **   ~~~   ** ... Defrost Energy Input Ratio Function of Temperature Curve Name = DEFROSTEIR output is not equal to 1.0 (+ or - 10%) at rated conditions.
   **   ~~~   ** ... Curve output at rated conditions = 0.152
   ************* Beginning System Sizing Calculations
   ************* Beginning Plant Sizing Calculations
   ** Warning ** SizeDXCoil Coil:Cooling:DX:SingleSpeed DX_COOLING_COIL
   **   ~~~   ** ...Gross Rated Total Cooling Capacity [W] will be limited by the maximum rated volume flow per rated total capacity ratio.
   **   ~~~   ** ...DX coil volume flow rate ( m3/s ) = 0.555971
   **   ~~~   ** ...Requested capacity ( W ) = 7903.507
   **   ~~~   ** ...Requested flow/capacity ratio ( m3/s/W ) = 7.034E-005
   **   ~~~   ** ...Maximum flow/capacity ratio ( m3/s/W ) = 6.041E-005
   **   ~~~   ** ...Adjusted capacity ( W ) = 9203.304
   ** Warning ** Coil:WaterHeating:AirToWaterHeatPump:Wrapped "HEAT PUMP WATER HEATER EVAPORATOR": Rated air volume flow rate per watt of rated total water heating capacity is out of range
   **   ~~~   ** Min Rated Vol Flow Per Watt=[4.027E-005], Rated Vol Flow Per Watt=[1.510E-004], Max Rated Vol Flow Per Watt=[8.056E-005]. See Input-Output Reference Manual for valid range.
   ************* SizeFan: : Potential issue with equipment sizing for Fan:OnOff HEAT PUMP WATER HEATER FAN
   **   ~~~   ** User-Specified Maximum Flow Rate [m3/s] = 0.22653
   **   ~~~   ** differs from Design Size Maximum Flow Rate [m3/s] = 7.55250E-002
   **   ~~~   ** This may, or may not, indicate mismatched component sizes.
   **   ~~~   ** Verify that the value entered is intended and is consistent with other components.
   ** Warning ** Water heater = WATER HEATER TANK:  Recovery Efficiency and Energy Factor could not be calculated during the test for standard ratings
   **   ~~~   ** Setpoint was never recovered and/or heater never turned on
   ** Warning ** Check input. Pump nominal power or motor efficiency is set to 0, for pump=MAINS PRESSURE
   ** Warning ** Output:Meter: invalid Key Name="ELECTRIC_RANGE:INTERIOREQUIPMENT:ELECTRICITY" - not found.
   ** Warning ** Output:Meter: invalid Key Name="ELECTRIC_DRYER:INTERIOREQUIPMENT:ELECTRICITY" - not found.
   ** Warning ** Output:Meter: invalid Key Name="HEATRECOVERY:ELECTRICITY" - not found.
   ** Warning ** Output:Meter: invalid Key Name="HEATING:NATURALGAS" - not found.
   ** Warning ** Output:Meter: invalid Key Name="WATERSYSTEMS:NATURALGAS" - not found.
   ** Warning ** Output:Meter: invalid Key Name="PROPANE:FACILITY" - not found.
   ** Warning ** Output:Meter: invalid Key Name="HEATING:PROPANE" - not found.
   ************* Testing Individual Branch Integrity
   ************* All Branches passed integrity testing
   ************* Testing Individual Supply Air Path Integrity
   ************* All Supply Air Paths passed integrity testing
   ************* Testing Individual Return Air Path Integrity
   ************* All Return Air Paths passed integrity testing
   ************* No node connection errors were found.
   ************* Beginning Simulation
   ** Warning ** AirflowNetwork::Solver::validate_distribution: Heat pump water heater is simulated along with an AirflowNetwork but is not included in the AirflowNetwork.
   ** Warning ** CalcEquipmentFlowRates: "TOTAL HOT WATER LOAD" - Target water temperature is greater than the hot water temperature by (5.64 C)
   **   ~~~   **  Environment=EXTREME_WINTER, at Simulation time=12/22 06:00 - 06:15
   **   ~~~   ** ...target water temperature     = 53.33 C
   **   ~~~   ** ...hot water temperature        = 47.69 C
   **   ~~~   ** ...Target water temperature should be less than or equal to the hot water temperature. Verify temperature setpoints and schedules.
   ** Warning ** SimHVAC: Maximum iterations (20) exceeded for all HVAC loops, at EXTREME_WINTER, 12/28 11:43 - 11:45
   **   ~~~   ** The solution for one or more of the Air Loop HVAC systems did not appear to converge
   **   ~~~   ** Air System Named = CENTRAL SYSTEM did not converge for mass flow rate
   **   ~~~   ** Check values should be zero. Most Recent values listed first.
   **   ~~~   ** Demand-to-Supply interface mass flow rate check value iteration history trace: 6.573789E-002,6.573789E-002,6.573789E-002,6.573789E-002,6.573789E-002,6.573789E-002,6.573789E-002,6.573789E-002,6.573789E-002,6.573789E-002,
   **   ~~~   ** Supply-to-demand interface deck 1 mass flow rate check value iteration history trace: 6.573789E-002,6.573789E-002,6.573789E-002,6.573789E-002,6.573789E-002,6.573789E-002,6.573789E-002,6.573789E-002,6.573789E-002,6.573789E-002,
   **   ~~~   ** Air System Named = CENTRAL SYSTEM did not converge for energy
   **   ~~~   ** Check values should be zero. Most Recent values listed first.
   **   ~~~   ** Demand-to-Supply interface energy check value iteration history trace: 1293.930860,1293.930860,1293.930860,1293.930860,1293.930860,1293.930860,1293.930860,1293.930860,1293.930860,1293.930859,
   **   ~~~   ** Supply-to-demand interface deck 1 energy check value iteration history trace: 2284.162387,2284.162387,2284.162387,2284.162387,2284.162387,2284.162387,2284.162387,2284.162387,2284.162387,2284.162386,
   ** Warning ** SimHVAC: Maximum iterations (20) exceeded for all HVAC loops, at EXTREME_SUMMER, 07/04 03:15 - 03:30
   **   ~~~   ** The solution for one or more of the Air Loop HVAC systems did not appear to converge
   **   ~~~   ** Air System Named = CENTRAL SYSTEM did not converge for mass flow rate
   **   ~~~   ** Check values should be zero. Most Recent values listed first.
   **   ~~~   ** Demand-to-Supply interface mass flow rate check value iteration history trace: 6.979944E-002,6.979944E-002,6.979944E-002,6.979944E-002,6.979944E-002,6.979944E-002,6.979944E-002,6.979944E-002,6.979944E-002,6.979944E-002,
   **   ~~~   ** Supply-to-demand interface deck 1 mass flow rate check value iteration history trace: 6.979944E-002,6.979944E-002,6.979944E-002,6.979944E-002,6.979944E-002,6.979944E-002,6.979944E-002,6.979944E-002,6.979944E-002,6.979944E-002,
   **   ~~~   ** Air System Named = CENTRAL SYSTEM did not converge for energy
   **   ~~~   ** Check values should be zero. Most Recent values listed first.
   **   ~~~   ** Demand-to-Supply interface energy check value iteration history trace: 1737.448405,1737.448406,1737.448406,1737.448406,1737.448407,1737.448407,1737.448408,1737.448408,1737.448408,1737.448409,
   **   ~~~   ** Supply-to-demand interface deck 1 energy check value iteration history trace: 721.176184,721.176185,721.176185,721.176185,721.176185,721.176185,721.176185,721.176185,721.176186,721.176186,
   ** Warning ** SimHVAC: Maximum iterations (20) exceeded for all HVAC loops, at ANNUAL, 01/01 23:30 - 23:45
   **   ~~~   ** The solution for one or more of the Air Loop HVAC systems did not appear to converge
   **   ~~~   ** Air System Named = CENTRAL SYSTEM did not converge for mass flow rate
   **   ~~~   ** Check values should be zero. Most Recent values listed first.
   **   ~~~   ** Demand-to-Supply interface mass flow rate check value iteration history trace: 5.231026E-002,5.231026E-002,5.231026E-002,5.231026E-002,5.231026E-002,5.231026E-002,5.231026E-002,5.231026E-002,5.231026E-002,5.231026E-002,
   **   ~~~   ** Supply-to-demand interface deck 1 mass flow rate check value iteration history trace: 5.231026E-002,5.231026E-002,5.231026E-002,5.231026E-002,5.231026E-002,5.231026E-002,5.231026E-002,5.231026E-002,5.231026E-002,5.231026E-002,
   **   ~~~   ** Air System Named = CENTRAL SYSTEM did not converge for energy
   **   ~~~   ** Check values should be zero. Most Recent values listed first.
   **   ~~~   ** Demand-to-Supply interface energy check value iteration history trace: 977.385930,977.385930,977.385930,977.385929,977.385929,977.385929,977.385929,977.385929,977.385929,977.385929,
   **   ~~~   ** Supply-to-demand interface deck 1 energy check value iteration history trace: 1781.249739,1781.249739,1781.249739,1781.249739,1781.249739,1781.249739,1781.249739,1781.249739,1781.249739,1781.249738,
   ** Warning ** SimHVAC: Maximum iterations (20) exceeded for all HVAC loops, at ANNUAL, 01/02 00:00 - 00:15
   **   ~~~   ** The solution for one or more of the Air Loop HVAC systems did not appear to converge
   **   ~~~   ** Air System Named = CENTRAL SYSTEM did not converge for mass flow rate
   **   ~~~   ** Check values should be zero. Most Recent values listed first.
   **   ~~~   ** Demand-to-Supply interface mass flow rate check value iteration history trace: 3.146984E-002,3.146984E-002,3.146984E-002,3.146984E-002,3.146984E-002,3.146984E-002,3.146984E-002,3.146984E-002,3.146984E-002,3.146984E-002,
   **   ~~~   ** Supply-to-demand interface deck 1 mass flow rate check value iteration history trace: 3.146984E-002,3.146984E-002,3.146984E-002,3.146984E-002,3.146984E-002,3.146984E-002,3.146984E-002,3.146984E-002,3.146984E-002,3.146984E-002,
   **   ~~~   ** Air System Named = CENTRAL SYSTEM did not converge for energy
   **   ~~~   ** Check values should be zero. Most Recent values listed first.
   **   ~~~   ** Demand-to-Supply interface energy check value iteration history trace: 587.787850,587.787850,587.787850,587.787850,587.787850,587.787850,587.787850,587.787850,587.787850,587.787850,
   **   ~~~   ** Supply-to-demand interface deck 1 energy check value iteration history trace: 1069.741607,1069.741607,1069.741607,1069.741607,1069.741607,1069.741607,1069.741607,1069.741607,1069.741607,1069.741607,
   ** Warning ** SimHVAC: Maximum iterations (20) exceeded for all HVAC loops, at ANNUAL, 01/02 18:08 - 18:15
   **   ~~~   ** The solution for one or more of the Air Loop HVAC systems did not appear to converge
   **   ~~~   ** Air System Named = CENTRAL SYSTEM did not converge for mass flow rate
   **   ~~~   ** Check values should be zero. Most Recent values listed first.
   **   ~~~   ** Demand-to-Supply interface mass flow rate check value iteration history trace: 5.833470E-002,5.833470E-002,5.833470E-002,5.833470E-002,5.833470E-002,5.833470E-002,5.833470E-002,5.833470E-002,5.833470E-002,5.833470E-002,
   **   ~~~   ** Supply-to-demand interface deck 1 mass flow rate check value iteration history trace: 5.833470E-002,5.833470E-002,5.833470E-002,5.833470E-002,5.833470E-002,5.833470E-002,5.833470E-002,5.833470E-002,5.833470E-002,5.833470E-002,
   **   ~~~   ** Air System Named = CENTRAL SYSTEM did not converge for energy
   **   ~~~   ** Check values should be zero. Most Recent values listed first.
   **   ~~~   ** Demand-to-Supply interface energy check value iteration history trace: 1150.903922,1150.903922,1150.903922,1150.903922,1150.903922,1150.903922,1150.903922,1150.903922,1150.903922,1150.903922,
   **   ~~~   ** Supply-to-demand interface deck 1 energy check value iteration history trace: 2110.914493,2110.914493,2110.914493,2110.914493,2110.914493,2110.914493,2110.914493,2110.914493,2110.914493,2110.914493,
   ** Warning ** SimHVAC: Maximum iterations (20) exceeded for all HVAC loops, at ANNUAL, 01/05 20:23 - 20:30
   **   ~~~   ** The solution for one or more of the Air Loop HVAC systems did not appear to converge
   **   ~~~   ** Air System Named = CENTRAL SYSTEM did not converge for mass flow rate
   **   ~~~   ** Check values should be zero. Most Recent values listed first.
   **   ~~~   ** Demand-to-Supply interface mass flow rate check value iteration history trace: 7.257993E-002,7.257993E-002,7.257993E-002,7.257993E-002,7.257993E-002,7.257993E-002,7.257993E-002,7.257993E-002,7.257993E-002,7.257993E-002,
   **   ~~~   ** Supply-to-demand interface deck 1 mass flow rate check value iteration history trace: 7.257993E-002,7.257993E-002,7.257993E-002,7.257993E-002,7.257993E-002,7.257993E-002,7.257993E-002,7.257993E-002,7.257993E-002,7.257993E-002,
   **   ~~~   ** Air System Named = CENTRAL SYSTEM did not converge for energy
   **   ~~~   ** Check values should be zero. Most Recent values listed first.
   **   ~~~   ** Demand-to-Supply interface energy check value iteration history trace: 1418.450379,1418.450379,1418.450378,1418.450378,1418.450378,1418.450378,1418.450378,1418.450378,1418.450378,1418.450378,
   **   ~~~   ** Supply-to-demand interface deck 1 energy check value iteration history trace: 2227.799732,2227.799732,2227.799732,2227.799732,2227.799732,2227.799732,2227.799732,2227.799731,2227.799731,2227.799731,
   ** Warning ** SimHVAC: Maximum iterations (20) exceeded for all HVAC loops, at ANNUAL, 01/13 09:18 - 09:21
   **   ~~~   ** The solution for one or more of the Air Loop HVAC systems did not appear to converge
   **   ~~~   ** Air System Named = CENTRAL SYSTEM did not converge for mass flow rate
   **   ~~~   ** Check values should be zero. Most Recent values listed first.
   **   ~~~   ** Demand-to-Supply interface mass flow rate check value iteration history trace: 6.077734E-002,6.077734E-002,6.077734E-002,6.077734E-002,6.077734E-002,6.077734E-002,6.077734E-002,6.077734E-002,6.077734E-002,6.077734E-002,
   **   ~~~   ** Supply-to-demand interface deck 1 mass flow rate check value iteration history trace: 6.077734E-002,6.077734E-002,6.077734E-002,6.077734E-002,6.077734E-002,6.077734E-002,6.077734E-002,6.077734E-002,6.077734E-002,6.077734E-002,
   **   ~~~   ** Air System Named = CENTRAL SYSTEM did not converge for energy
   **   ~~~   ** Check values should be zero. Most Recent values listed first.
   **   ~~~   ** Demand-to-Supply interface energy check value iteration history trace: 1204.410336,1204.410336,1204.410336,1204.410336,1204.410336,1204.410336,1204.410336,1204.410336,1204.410336,1204.410336,
   **   ~~~   ** Supply-to-demand interface deck 1 energy check value iteration history trace: 2153.738208,2153.738208,2153.738208,2153.738208,2153.738208,2153.738208,2153.738208,2153.738208,2153.738208,2153.738208,
   ** Warning ** SimHVAC: Maximum iterations (20) exceeded for all HVAC loops, at ANNUAL, 01/16 10:04 - 10:06
   **   ~~~   ** The solution for one or more of the Air Loop HVAC systems did not appear to converge
   **   ~~~   ** Air System Named = CENTRAL SYSTEM did not converge for mass flow rate
   **   ~~~   ** Check values should be zero. Most Recent values listed first.
   **   ~~~   ** Demand-to-Supply interface mass flow rate check value iteration history trace: 5.968555E-002,5.968555E-002,5.968555E-002,5.968555E-002,5.968555E-002,5.968555E-002,5.968555E-002,5.968555E-002,5.968555E-002,5.968555E-002,
   **   ~~~   ** Supply-to-demand interface deck 1 mass flow rate check value iteration history trace: 5.968555E-002,5.968555E-002,5.968555E-002,5.968555E-002,5.968555E-002,5.968555E-002,5.968555E-002,5.968555E-002,5.968555E-002,5.968555E-002,
   **   ~~~   ** Air System Named = CENTRAL SYSTEM did not converge for energy
   **   ~~~   ** Check values should be zero. Most Recent values listed first.
   **   ~~~   ** Demand-to-Supply interface energy check value iteration history trace: 1180.947122,1180.947122,1180.947122,1180.947122,1180.947122,1180.947121,1180.947121,1180.947121,1180.947121,1180.947121,
   **   ~~~   ** Supply-to-demand interface deck 1 energy check value iteration history trace: 2111.585077,2111.585077,2111.585077,2111.585076,2111.585076,2111.585076,2111.585076,2111.585076,2111.585076,2111.585076,
   ** Warning ** SimHVAC: Maximum iterations (20) exceeded for all HVAC loops, at ANNUAL, 01/22 10:15 - 10:18
   **   ~~~   ** The solution for one or more of the Air Loop HVAC systems did not appear to converge
   **   ~~~   ** Air System Named = CENTRAL SYSTEM did not converge for mass flow rate
   **   ~~~   ** Check values should be zero. Most Recent values listed first.
   **   ~~~   ** Demand-to-Supply interface mass flow rate check value iteration history trace: 7.047898E-002,7.047898E-002,7.047898E-002,7.047898E-002,7.047898E-002,7.047898E-002,7.047898E-002,7.047898E-002,7.047898E-002,7.047898E-002,
   **   ~~~   ** Supply-to-demand interface deck 1 mass flow rate check value iteration history trace: 7.047898E-002,7.047898E-002,7.047898E-002,7.047898E-002,7.047898E-002,7.047898E-002,7.047898E-002,7.047898E-002,7.047898E-002,7.047898E-002,
   **   ~~~   ** Air System Named = CENTRAL SYSTEM did not converge for energy
   **   ~~~   ** Check values should be zero. Most Recent values listed first.
   **   ~~~   ** Demand-to-Supply interface energy check value iteration history trace: 1396.654239,1396.654239,1396.654239,1396.654239,1396.654239,1396.654239,1396.654239,1396.654239,1396.654239,1396.654239,
   **   ~~~   ** Supply-to-demand interface deck 1 energy check value iteration history trace: 2487.000992,2487.000992,2487.000992,2487.000992,2487.000992,2487.000992,2487.000992,2487.000991,2487.000991,2487.000991,
   ** Warning ** SimHVAC: Maximum iterations (20) exceeded for all HVAC loops, at ANNUAL, 02/03 09:45 - 10:00
   **   ~~~   ** The solution for one or more of the Air Loop HVAC systems did not appear to converge
   **   ~~~   ** Air System Named = CENTRAL SYSTEM did not converge for mass flow rate
   **   ~~~   ** Check values should be zero. Most Recent values listed first.
   **   ~~~   ** Demand-to-Supply interface mass flow rate check value iteration history trace: 5.491398E-002,5.491398E-002,5.491398E-002,5.491398E-002,5.491398E-002,5.491398E-002,5.491398E-002,5.491398E-002,5.491398E-002,5.491398E-002,
   **   ~~~   ** Supply-to-demand interface deck 1 mass flow rate check value iteration history trace: 5.491398E-002,5.491398E-002,5.491398E-002,5.491398E-002,5.491398E-002,5.491398E-002,5.491398E-002,5.491398E-002,5.491398E-002,5.491398E-002,
   **   ~~~   ** Air System Named = CENTRAL SYSTEM did not converge for energy
   **   ~~~   ** Check values should be zero. Most Recent values listed first.
   **   ~~~   ** Demand-to-Supply interface energy check value iteration history trace: 1088.227516,1088.227516,1088.227516,1088.227515,1088.227515,1088.227515,1088.227515,1088.227515,1088.227515,1088.227515,
   **   ~~~   ** Supply-to-demand interface deck 1 energy check value iteration history trace: 1959.944879,1959.944879,1959.944879,1959.944879,1959.944879,1959.944879,1959.944879,1959.944879,1959.944879,1959.944879,
   ** Warning ** SimHVAC: Maximum iterations (20) exceeded for all HVAC loops, at ANNUAL, 02/09 09:08 - 09:15
   **   ~~~   ** The solution for one or more of the Air Loop HVAC systems did not appear to converge
   **   ~~~   ** Air System Named = CENTRAL SYSTEM did not converge for mass flow rate
   **   ~~~   ** Check values should be zero. Most Recent values listed first.
   **   ~~~   ** Demand-to-Supply interface mass flow rate check value iteration history trace: 4.372325E-002,4.372325E-002,4.372325E-002,4.372325E-002,4.372325E-002,4.372325E-002,4.372325E-002,4.372325E-002,4.372325E-002,4.372325E-002,
   **   ~~~   ** Supply-to-demand interface deck 1 mass flow rate check value iteration history trace: 4.372325E-002,4.372325E-002,4.372325E-002,4.372325E-002,4.372325E-002,4.372325E-002,4.372325E-002,4.372325E-002,4.372325E-002,4.372325E-002,
   **   ~~~   ** Air System Named = CENTRAL SYSTEM did not converge for energy
   **   ~~~   ** Check values should be zero. Most Recent values listed first.
   **   ~~~   ** Demand-to-Supply interface energy check value iteration history trace: 859.086384,859.086384,859.086383,859.086383,859.086383,859.086383,859.086383,859.086383,859.086383,859.086383,
   **   ~~~   ** Supply-to-demand interface deck 1 energy check value iteration history trace: 1695.113883,1695.113883,1695.113883,1695.113883,1695.113883,1695.113883,1695.113883,1695.113883,1695.113883,1695.113883,
   ** Warning ** SimHVAC: Maximum iterations (20) exceeded for all HVAC loops, at ANNUAL, 02/10 07:38 - 07:45
   **   ~~~   ** The solution for one or more of the Air Loop HVAC systems did not appear to converge
   **   ~~~   ** Air System Named = CENTRAL SYSTEM did not converge for mass flow rate
   **   ~~~   ** Check values should be zero. Most Recent values listed first.
   **   ~~~   ** Demand-to-Supply interface mass flow rate check value iteration history trace: 6.148657E-002,6.148657E-002,6.148657E-002,6.148657E-002,6.148657E-002,6.148657E-002,6.148657E-002,6.148657E-002,6.148657E-002,6.148657E-002,
   **   ~~~   ** Supply-to-demand interface deck 1 mass flow rate check value iteration history trace: 6.148657E-002,6.148657E-002,6.148657E-002,6.148657E-002,6.148657E-002,6.148657E-002,6.148657E-002,6.148657E-002,6.148657E-002,6.148657E-002,
   **   ~~~   ** Air System Named = CENTRAL SYSTEM did not converge for energy
   **   ~~~   ** Check values should be zero. Most Recent values listed first.
   **   ~~~   ** Demand-to-Supply interface energy check value iteration history trace: 1218.375393,1218.375393,1218.375393,1218.375393,1218.375393,1218.375393,1218.375393,1218.375393,1218.375393,1218.375393,
   **   ~~~   ** Supply-to-demand interface deck 1 energy check value iteration history trace: 2285.040602,2285.040602,2285.040602,2285.040602,2285.040602,2285.040602,2285.040602,2285.040602,2285.040601,2285.040601,
   ** Warning ** SimHVAC: Maximum iterations (20) exceeded for all HVAC loops, at ANNUAL, 02/24 09:54 - 09:56
   **   ~~~   ** The solution for one or more of the Air Loop HVAC systems did not appear to converge
   **   ~~~   ** Air System Named = CENTRAL SYSTEM did not converge for mass flow rate
   **   ~~~   ** Check values should be zero. Most Recent values listed first.
   **   ~~~   ** Demand-to-Supply interface mass flow rate check value iteration history trace: 5.860468E-002,5.860468E-002,5.860468E-002,5.860468E-002,5.860468E-002,5.860468E-002,5.860468E-002,5.860468E-002,5.860468E-002,5.860468E-002,
   **   ~~~   ** Supply-to-demand interface deck 1 mass flow rate check value iteration history trace: 5.860468E-002,5.860468E-002,5.860468E-002,5.860468E-002,5.860468E-002,5.860468E-002,5.860468E-002,5.860468E-002,5.860468E-002,5.860468E-002,
   **   ~~~   ** Air System Named = CENTRAL SYSTEM did not converge for energy
   **   ~~~   ** Check values should be zero. Most Recent values listed first.
   **   ~~~   ** Demand-to-Supply interface energy check value iteration history trace: 1158.807248,1158.807248,1158.807248,1158.807248,1158.807248,1158.807248,1158.807248,1158.807248,1158.807248,1158.807248,
   **   ~~~   ** Supply-to-demand interface deck 1 energy check value iteration history trace: 2053.449770,2053.449769,2053.449769,2053.449769,2053.449769,2053.449769,2053.449769,2053.449769,2053.449769,2053.449769,
   ** Warning ** SimHVAC: Maximum iterations (20) exceeded for all HVAC loops, at ANNUAL, 02/27 07:45 - 07:52
   **   ~~~   ** The solution for one or more of the Air Loop HVAC systems did not appear to converge
   **   ~~~   ** Air System Named = CENTRAL SYSTEM did not converge for mass flow rate
   **   ~~~   ** Check values should be zero. Most Recent values listed first.
   **   ~~~   ** Demand-to-Supply interface mass flow rate check value iteration history trace: 6.644218E-002,6.644218E-002,6.644218E-002,6.644218E-002,6.644218E-002,6.644218E-002,6.644218E-002,6.644218E-002,6.644218E-002,6.644218E-002,
   **   ~~~   ** Supply-to-demand interface deck 1 mass flow rate check value iteration history trace: 6.644218E-002,6.644218E-002,6.644218E-002,6.644218E-002,6.644218E-002,6.644218E-002,6.644218E-002,6.644218E-002,6.644218E-002,6.644218E-002,
   **   ~~~   ** Air System Named = CENTRAL SYSTEM did not converge for energy
   **   ~~~   ** Check values should be zero. Most Recent values listed first.
   **   ~~~   ** Demand-to-Supply interface energy check value iteration history trace: 1316.472399,1316.472399,1316.472399,1316.472399,1316.472399,1316.472399,1316.472399,1316.472399,1316.472399,1316.472399,
   **   ~~~   ** Supply-to-demand interface deck 1 energy check value iteration history trace: 2366.547785,2366.547785,2366.547785,2366.547785,2366.547785,2366.547785,2366.547785,2366.547784,2366.547784,2366.547784,
   ** Warning ** Temperature out of range [-100. to 200.] (PsyPsatFnTemp)
   **   ~~~   **  Routine=PsyTwbFnTdbWPb, Environment=ANNUAL, at Simulation time=03/05 07:15 - 07:22
   **   ~~~   **  Input Temperature=-154.34
   ************* Simulation Error Summary *************
   ** Warning ** The following Report Variables were requested but not generated -- check.rdd file
   **   ~~~   ** Either the IDF did not contain these elements, the variable name is misspelled,
   **   ~~~   ** or the requested variable is an advanced output which requires Output : Diagnostics, DisplayAdvancedReportVariables;
   ************* Key=*, VarName=BASEBOARD TOTAL HEATING ENERGY, Frequency=
   ************* Key=*, VarName=WATER HEATER NATURALGAS ENERGY, Frequency=
   ************* Key=*, VarName=COOLING COIL TOTAL HEATING ENERGY, Frequency=
   ************* There are 34 unused schedules in input.
   ************* There are 388 unused week schedules in input.
   ************* There are 396 unused day schedules in input.
   ************* Use Output:Diagnostics,DisplayUnusedSchedules; to see them.
   *************
   ************* ===== Recurring Error Summary =====
   ************* The following recurring error messages occurred.
   *************
   *************  ** Warning ** "TOTAL HOT WATER LOAD" - Target water temperature should be less than or equal to the hot water temperature error continues...
   *************  **   ~~~   **   This error occurred 152159 total times;
   *************  **   ~~~   **   during Warmup 0 times;
   *************  **   ~~~   **   during Sizing 0 times.
   *************  **   ~~~   **   Max=11.312992  Min=1.826213E-003
   *************
   *************  ** Warning ** SimHVAC: Exceeding Maximum iterations for all HVAC loops, during ANNUAL continues
   *************  **   ~~~   **   This error occurred 18 total times;
   *************  **   ~~~   **   during Warmup 0 times;
   *************  **   ~~~   **   during Sizing 0 times.
   *************
   *************  ** Warning ** Temperature out of range [-100. to 200.] (PsyPsatFnTemp)
   *************  **   ~~~   **   This error occurred 2 total times;
   *************  **   ~~~   **   during Warmup 0 times;
   *************  **   ~~~   **   during Sizing 0 times.
   *************  **   ~~~   **   Max=-154.344551 C  Min=-166.66993 C
   *************
   *************
   ************* ===== Final Error Summary =====
   ************* The following error categories occurred.  Consider correcting or noting.
   ************* Nominally Unused Constructions
   ************* ..The nominally unused constructions warning is provided to alert you to potential conditions that can cause
   ************* ..extra time during simulation. Each construction is calculated by the algorithm indicated in the HeatBalanceAlgorithm
   ************* ..object. You may remove the constructions indicated (when you use the DisplayExtraWarnings option).
   *************
   ************* EnergyPlus Warmup Error Summary. During Warmup: 1 Warning; 0 Severe Errors.
   ************* EnergyPlus Sizing Error Summary. During Sizing: 4 Warning; 0 Severe Errors.
   ************* EnergyPlus Completed Successfully-- 152211 Warning; 0 Severe Errors; Elapsed Time=00hr 01min 47.62sec
