Program Version,EnergyPlus, Version 22.2.0-c249759bad, YMD=2023.09.01 19:45,
   ************* Beginning Zone Sizing Calculations
   ** Warning ** ProcessScheduleInput: Schedule:Constant="ALWAYS ON DISCRETE", Schedule Type Limits Name="ONOFF" not found -- will not be validated
   ** Warning ** Foundation:Kiva="KIVA FOUNDATION", no Interior Horizontal Insulation Material Name defined
   **   ~~~   ** Interior Horizontal Insulation Depth will not be used.
   ** Warning ** CheckUsedConstructions: There are 15 nominally unused constructions in input.
   **   ~~~   ** Each Unused construction is shown.
   ************* Construction=INTERIOR FLOOR
   ************* Construction=INTERIOR WINDOW
   ************* Construction=EXTERIOR DOOR
   ************* Construction=INTERIOR DOOR
   ************* Construction=GABLE CONSTRUCTION
   ************* Construction=CRAWL_FLOOR
   ************* Construction=INSULATED PIPE
   ************* Construction=PLAIN PIPE
   ************* Construction=TDD PIPE
   ************* Construction=TDD DOME
   ************* Construction=TDD DIFFUSER
   ************* Construction=CRAWL WALL
   ************* Construction=CEILING-FLOOR-LAYER
   ************* Construction=SLAB CONSTRUCTION W FULL R10 INSULATION
   ************* Construction=SLAB CONSTRUCTION W FULL R5 INSULATION
   ** Warning ** GetDXCoils: Coil:Heating:DX:SingleSpeed="DX_HEATING_COIL" curve values
   **   ~~~   ** ... Defrost Energy Input Ratio Function of Temperature Curve Name = DEFROSTEIR output is not equal to 1.0 (+ or - 10%) at rated conditions.
   **   ~~~   ** ... Curve output at rated conditions = 0.152
   ************* Beginning System Sizing Calculations
   ************* Beginning Plant Sizing Calculations
   ** Warning ** Coil:WaterHeating:AirToWaterHeatPump:Wrapped "HEAT PUMP WATER HEATER EVAPORATOR": Rated air volume flow rate per watt of rated total water heating capacity is out of range
   **   ~~~   ** Min Rated Vol Flow Per Watt=[4.027E-005], Rated Vol Flow Per Watt=[1.510E-004], Max Rated Vol Flow Per Watt=[8.056E-005]. See Input-Output Reference Manual for valid range.
   ************* SizeFan: : Potential issue with equipment sizing for Fan:OnOff HEAT PUMP WATER HEATER FAN
   **   ~~~   ** User-Specified Maximum Flow Rate [m3/s] = 0.22653
   **   ~~~   ** differs from Design Size Maximum Flow Rate [m3/s] = 7.55250E-002
   **   ~~~   ** This may, or may not, indicate mismatched component sizes.
   **   ~~~   ** Verify that the value entered is intended and is consistent with other components.
   ** Warning ** Water heater = WATER HEATER TANK:  Recovery Efficiency and Energy Factor could not be calculated during the test for standard ratings
   **   ~~~   ** Setpoint was never recovered and/or heater never turned on
   ** Warning ** Check input. Pump nominal power or motor efficiency is set to 0, for pump=MAINS PRESSURE
   ** Warning ** Output:Meter: invalid Key Name="ELECTRIC_RANGE:INTERIOREQUIPMENT:ELECTRICITY" - not found.
   ** Warning ** Output:Meter: invalid Key Name="ELECTRIC_DRYER:INTERIOREQUIPMENT:ELECTRICITY" - not found.
   ** Warning ** Output:Meter: invalid Key Name="HEATRECOVERY:ELECTRICITY" - not found.
   ** Warning ** Output:Meter: invalid Key Name="HEATING:NATURALGAS" - not found.
   ** Warning ** Output:Meter: invalid Key Name="WATERSYSTEMS:NATURALGAS" - not found.
   ** Warning ** Output:Meter: invalid Key Name="PROPANE:FACILITY" - not found.
   ** Warning ** Output:Meter: invalid Key Name="HEATING:PROPANE" - not found.
   ************* Testing Individual Branch Integrity
   ************* All Branches passed integrity testing
   ************* Testing Individual Supply Air Path Integrity
   ************* All Supply Air Paths passed integrity testing
   ************* Testing Individual Return Air Path Integrity
   ************* All Return Air Paths passed integrity testing
   ************* No node connection errors were found.
   ************* Beginning Simulation
   ** Warning ** AirflowNetwork::Solver::validate_distribution: Heat pump water heater is simulated along with an AirflowNetwork but is not included in the AirflowNetwork.
   ** Warning ** CalcEquipmentFlowRates: "TOTAL HOT WATER LOAD" - Target water temperature is greater than the hot water temperature by (5.18 C)
   **   ~~~   **  Environment=EXTREME_WINTER, at Simulation time=01/29 06:00 - 06:15
   **   ~~~   ** ...target water temperature     = 53.33 C
   **   ~~~   ** ...hot water temperature        = 48.16 C
   **   ~~~   ** ...Target water temperature should be less than or equal to the hot water temperature. Verify temperature setpoints and schedules.
   ** Warning ** SimHVAC: Maximum iterations (20) exceeded for all HVAC loops, at ANNUAL, 01/18 08:35 - 08:40
   **   ~~~   ** The solution for one or more of the Air Loop HVAC systems did not appear to converge
   **   ~~~   ** Air System Named = CENTRAL SYSTEM did not converge for mass flow rate
   **   ~~~   ** Check values should be zero. Most Recent values listed first.
   **   ~~~   ** Demand-to-Supply interface mass flow rate check value iteration history trace: 5.965405E-002,5.965405E-002,5.965405E-002,5.965405E-002,5.965405E-002,5.965405E-002,5.965405E-002,5.965405E-002,5.965405E-002,5.965405E-002,
   **   ~~~   ** Supply-to-demand interface deck 1 mass flow rate check value iteration history trace: 5.965405E-002,5.965405E-002,5.965405E-002,5.965405E-002,5.965405E-002,5.965405E-002,5.965405E-002,5.965405E-002,5.965405E-002,5.965405E-002,
   **   ~~~   ** Air System Named = CENTRAL SYSTEM did not converge for energy
   **   ~~~   ** Check values should be zero. Most Recent values listed first.
   **   ~~~   ** Demand-to-Supply interface energy check value iteration history trace: 1174.550024,1174.550024,1174.550024,1174.550024,1174.550024,1174.550024,1174.550023,1174.550023,1174.550023,1174.550023,
   **   ~~~   ** Supply-to-demand interface deck 1 energy check value iteration history trace: 2044.507922,2044.507922,2044.507922,2044.507922,2044.507922,2044.507922,2044.507921,2044.507921,2044.507921,2044.507921,
   ** Warning ** SimHVAC: Maximum iterations (20) exceeded for all HVAC loops, at ANNUAL, 01/28 16:00 - 16:15
   **   ~~~   ** The solution for one or more of the Air Loop HVAC systems did not appear to converge
   **   ~~~   ** Air System Named = CENTRAL SYSTEM did not converge for mass flow rate
   **   ~~~   ** Check values should be zero. Most Recent values listed first.
   **   ~~~   ** Demand-to-Supply interface mass flow rate check value iteration history trace: 9.566405E-002,9.566405E-002,9.566405E-002,9.566405E-002,9.566405E-002,9.566405E-002,9.566405E-002,9.566405E-002,9.566405E-002,9.566405E-002,
   **   ~~~   ** Supply-to-demand interface deck 1 mass flow rate check value iteration history trace: 9.566405E-002,9.566405E-002,9.566405E-002,9.566405E-002,9.566405E-002,9.566405E-002,9.566405E-002,9.566405E-002,9.566405E-002,9.566405E-002,
   **   ~~~   ** Air System Named = CENTRAL SYSTEM did not converge for energy
   **   ~~~   ** Check values should be zero. Most Recent values listed first.
   **   ~~~   ** Demand-to-Supply interface energy check value iteration history trace: 1895.712075,1895.712075,1895.712074,1895.712074,1895.712074,1895.712074,1895.712074,1895.712074,1895.712074,1895.712073,
   **   ~~~   ** Supply-to-demand interface deck 1 energy check value iteration history trace: 2853.382087,2853.382087,2853.382087,2853.382086,2853.382086,2853.382086,2853.382086,2853.382085,2853.382085,2853.382085,
   ** Warning ** SimHVAC: Maximum iterations (20) exceeded for all HVAC loops, at ANNUAL, 02/10 18:24 - 18:27
   **   ~~~   ** The solution for one or more of the Air Loop HVAC systems did not appear to converge
   **   ~~~   ** Air System Named = CENTRAL SYSTEM did not converge for mass flow rate
   **   ~~~   ** Check values should be zero. Most Recent values listed first.
   **   ~~~   ** Demand-to-Supply interface mass flow rate check value iteration history trace: 9.954380E-002,9.954380E-002,9.954380E-002,9.954380E-002,9.954380E-002,9.954380E-002,9.954380E-002,9.954380E-002,9.954380E-002,9.954380E-002,
   **   ~~~   ** Supply-to-demand interface deck 1 mass flow rate check value iteration history trace: 9.954380E-002,9.954380E-002,9.954380E-002,9.954380E-002,9.954380E-002,9.954380E-002,9.954380E-002,9.954380E-002,9.954380E-002,9.954380E-002,
   **   ~~~   ** Air System Named = CENTRAL SYSTEM did not converge for energy
   **   ~~~   ** Check values should be zero. Most Recent values listed first.
   **   ~~~   ** Demand-to-Supply interface energy check value iteration history trace: 1969.721102,1969.721102,1969.721102,1969.721102,1969.721102,1969.721102,1969.721102,1969.721101,1969.721101,1969.721101,
   **   ~~~   ** Supply-to-demand interface deck 1 energy check value iteration history trace: 2941.510607,2941.510607,2941.510607,2941.510607,2941.510606,2941.510606,2941.510606,2941.510606,2941.510606,2941.510605,
   ** Warning ** SimHVAC: Maximum iterations (20) exceeded for all HVAC loops, at ANNUAL, 04/03 07:05 - 07:10
   **   ~~~   ** The solution for one or more of the Air Loop HVAC systems did not appear to converge
   **   ~~~   ** Air System Named = CENTRAL SYSTEM did not converge for mass flow rate
   **   ~~~   ** Check values should be zero. Most Recent values listed first.
   **   ~~~   ** Demand-to-Supply interface mass flow rate check value iteration history trace: 0.173328,0.173328,0.173328,0.173328,0.173328,0.173328,0.173328,0.173328,0.173328,0.173328,
   **   ~~~   ** Supply-to-demand interface deck 1 mass flow rate check value iteration history trace: 0.173328,0.173328,0.173328,0.173328,0.173328,0.173328,0.173328,0.173328,0.173328,0.173328,
   **   ~~~   ** Air System Named = CENTRAL SYSTEM did not converge for energy
   **   ~~~   ** Check values should be zero. Most Recent values listed first.
   **   ~~~   ** Demand-to-Supply interface energy check value iteration history trace: 4085.191459,4085.191460,4085.191461,4085.191462,4085.191463,4085.191464,4085.191465,4085.191466,4085.191467,4085.191468,
   **   ~~~   ** Supply-to-demand interface deck 1 energy check value iteration history trace: 2313.810348,2313.810348,2313.810349,2313.810349,2313.810350,2313.810351,2313.810351,2313.810352,2313.810352,2313.810353,
   ** Warning ** SimHVAC: Maximum iterations (20) exceeded for all HVAC loops, at ANNUAL, 04/10 09:55 - 09:57
   **   ~~~   ** The solution for one or more of the Air Loop HVAC systems did not appear to converge
   **   ~~~   ** Air System Named = CENTRAL SYSTEM did not converge for mass flow rate
   **   ~~~   ** Check values should be zero. Most Recent values listed first.
   **   ~~~   ** Demand-to-Supply interface mass flow rate check value iteration history trace: 0.184324,0.184324,0.184324,0.184324,0.184324,0.184324,0.184324,0.184324,0.184324,0.184324,
   **   ~~~   ** Supply-to-demand interface deck 1 mass flow rate check value iteration history trace: 0.184324,0.184324,0.184324,0.184324,0.184324,0.184324,0.184324,0.184324,0.184324,0.184324,
   **   ~~~   ** Air System Named = CENTRAL SYSTEM did not converge for energy
   **   ~~~   ** Check values should be zero. Most Recent values listed first.
   **   ~~~   ** Demand-to-Supply interface energy check value iteration history trace: 4367.202739,4367.202740,4367.202741,4367.202741,4367.202742,4367.202743,4367.202744,4367.202744,4367.202745,4367.202746,
   **   ~~~   ** Supply-to-demand interface deck 1 energy check value iteration history trace: 2061.480021,2061.480021,2061.480021,2061.480022,2061.480022,2061.480022,2061.480023,2061.480023,2061.480023,2061.480024,
   ** Warning ** SimHVAC: Maximum iterations (20) exceeded for all HVAC loops, at ANNUAL, 11/19 07:53 - 07:56
   **   ~~~   ** The solution for one or more of the Air Loop HVAC systems did not appear to converge
   **   ~~~   ** Air System Named = CENTRAL SYSTEM did not converge for mass flow rate
   **   ~~~   ** Check values should be zero. Most Recent values listed first.
   **   ~~~   ** Demand-to-Supply interface mass flow rate check value iteration history trace: 6.023646E-002,6.023646E-002,6.023646E-002,6.023646E-002,6.023646E-002,6.023646E-002,6.023646E-002,6.023646E-002,6.023646E-002,6.023646E-002,
   **   ~~~   ** Supply-to-demand interface deck 1 mass flow rate check value iteration history trace: 6.023646E-002,6.023646E-002,6.023646E-002,6.023646E-002,6.023646E-002,6.023646E-002,6.023646E-002,6.023646E-002,6.023646E-002,6.023646E-002,
   **   ~~~   ** Air System Named = CENTRAL SYSTEM did not converge for energy
   **   ~~~   ** Check values should be zero. Most Recent values listed first.
   **   ~~~   ** Demand-to-Supply interface energy check value iteration history trace: 1192.816572,1192.816572,1192.816572,1192.816572,1192.816572,1192.816571,1192.816571,1192.816571,1192.816571,1192.816571,
   **   ~~~   ** Supply-to-demand interface deck 1 energy check value iteration history trace: 2051.934568,2051.934568,2051.934568,2051.934567,2051.934567,2051.934567,2051.934567,2051.934567,2051.934567,2051.934567,
   ** Warning ** SimHVAC: Maximum iterations (20) exceeded for all HVAC loops, at ANNUAL, 11/20 19:15 - 19:30
   **   ~~~   ** The solution for one or more of the Air Loop HVAC systems did not appear to converge
   **   ~~~   ** Air System Named = CENTRAL SYSTEM did not converge for mass flow rate
   **   ~~~   ** Check values should be zero. Most Recent values listed first.
   **   ~~~   ** Demand-to-Supply interface mass flow rate check value iteration history trace: 0.153826,0.153826,0.153826,0.153826,0.153826,0.153826,0.153826,0.153826,0.153826,0.153826,
   **   ~~~   ** Supply-to-demand interface deck 1 mass flow rate check value iteration history trace: 0.153826,0.153826,0.153826,0.153826,0.153826,0.153826,0.153826,0.153826,0.153826,0.153826,
   **   ~~~   ** Air System Named = CENTRAL SYSTEM did not converge for energy
   **   ~~~   ** Check values should be zero. Most Recent values listed first.
   **   ~~~   ** Demand-to-Supply interface energy check value iteration history trace: 3730.440027,3730.440028,3730.440028,3730.440029,3730.440029,3730.440030,3730.440030,3730.440031,3730.440032,3730.440032,
   **   ~~~   ** Supply-to-demand interface deck 1 energy check value iteration history trace: 1739.487131,1739.487132,1739.487132,1739.487132,1739.487132,1739.487133,1739.487133,1739.487133,1739.487133,1739.487134,
   ** Warning ** SimHVAC: Maximum iterations (20) exceeded for all HVAC loops, at ANNUAL, 11/23 20:23 - 20:30
   **   ~~~   ** The solution for one or more of the Air Loop HVAC systems did not appear to converge
   **   ~~~   ** Air System Named = CENTRAL SYSTEM did not converge for mass flow rate
   **   ~~~   ** Check values should be zero. Most Recent values listed first.
   **   ~~~   ** Demand-to-Supply interface mass flow rate check value iteration history trace: 0.109455,0.109455,0.109455,0.109455,0.109455,0.109455,0.109455,0.109455,0.109455,0.109455,
   **   ~~~   ** Supply-to-demand interface deck 1 mass flow rate check value iteration history trace: 0.109455,0.109455,0.109455,0.109455,0.109455,0.109455,0.109455,0.109455,0.109455,0.109455,
   **   ~~~   ** Air System Named = CENTRAL SYSTEM did not converge for energy
   **   ~~~   ** Check values should be zero. Most Recent values listed first.
   **   ~~~   ** Demand-to-Supply interface energy check value iteration history trace: 2576.288542,2576.288542,2576.288543,2576.288543,2576.288543,2576.288543,2576.288544,2576.288544,2576.288544,2576.288544,
   **   ~~~   ** Supply-to-demand interface deck 1 energy check value iteration history trace: 1276.266057,1276.266057,1276.266058,1276.266058,1276.266058,1276.266058,1276.266058,1276.266058,1276.266058,1276.266058,
   ** Warning ** SimHVAC: Maximum iterations (20) exceeded for all HVAC loops, at ANNUAL, 11/26 08:20 - 08:25
   **   ~~~   ** The solution for one or more of the Air Loop HVAC systems did not appear to converge
   **   ~~~   ** Air System Named = CENTRAL SYSTEM did not converge for mass flow rate
   **   ~~~   ** Check values should be zero. Most Recent values listed first.
   **   ~~~   ** Demand-to-Supply interface mass flow rate check value iteration history trace: 6.536294E-002,6.536294E-002,6.536294E-002,6.536294E-002,6.536294E-002,6.536294E-002,6.536294E-002,6.536294E-002,6.536294E-002,6.536294E-002,
   **   ~~~   ** Supply-to-demand interface deck 1 mass flow rate check value iteration history trace: 6.536294E-002,6.536294E-002,6.536294E-002,6.536294E-002,6.536294E-002,6.536294E-002,6.536294E-002,6.536294E-002,6.536294E-002,6.536294E-002,
   **   ~~~   ** Air System Named = CENTRAL SYSTEM did not converge for energy
   **   ~~~   ** Check values should be zero. Most Recent values listed first.
   **   ~~~   ** Demand-to-Supply interface energy check value iteration history trace: 1283.121654,1283.121654,1283.121654,1283.121654,1283.121654,1283.121654,1283.121653,1283.121653,1283.121653,1283.121653,
   **   ~~~   ** Supply-to-demand interface deck 1 energy check value iteration history trace: 2212.546498,2212.546498,2212.546498,2212.546498,2212.546498,2212.546498,2212.546498,2212.546498,2212.546498,2212.546497,
   ** Warning ** SimHVAC: Maximum iterations (20) exceeded for all HVAC loops, at ANNUAL, 11/26 08:45 - 08:47
   **   ~~~   ** The solution for one or more of the Air Loop HVAC systems did not appear to converge
   **   ~~~   ** Air System Named = CENTRAL SYSTEM did not converge for mass flow rate
   **   ~~~   ** Check values should be zero. Most Recent values listed first.
   **   ~~~   ** Demand-to-Supply interface mass flow rate check value iteration history trace: 6.627571E-002,6.627571E-002,6.627571E-002,6.627571E-002,6.627571E-002,6.627571E-002,6.627571E-002,6.627571E-002,6.627571E-002,6.627571E-002,
   **   ~~~   ** Supply-to-demand interface deck 1 mass flow rate check value iteration history trace: 6.627571E-002,6.627571E-002,6.627571E-002,6.627571E-002,6.627571E-002,6.627571E-002,6.627571E-002,6.627571E-002,6.627571E-002,6.627571E-002,
   **   ~~~   ** Air System Named = CENTRAL SYSTEM did not converge for energy
   **   ~~~   ** Check values should be zero. Most Recent values listed first.
   **   ~~~   ** Demand-to-Supply interface energy check value iteration history trace: 1304.395742,1304.395742,1304.395742,1304.395742,1304.395742,1304.395741,1304.395741,1304.395741,1304.395741,1304.395741,
   **   ~~~   ** Supply-to-demand interface deck 1 energy check value iteration history trace: 2278.057997,2278.057997,2278.057997,2278.057997,2278.057997,2278.057997,2278.057997,2278.057997,2278.057997,2278.057997,
   ** Warning ** SimHVAC: Maximum iterations (20) exceeded for all HVAC loops, at ANNUAL, 12/02 10:45 - 11:00
   **   ~~~   ** The solution for one or more of the Air Loop HVAC systems did not appear to converge
   **   ~~~   ** Air System Named = CENTRAL SYSTEM did not converge for mass flow rate
   **   ~~~   ** Check values should be zero. Most Recent values listed first.
   **   ~~~   ** Demand-to-Supply interface mass flow rate check value iteration history trace: 1.353997E-002,1.353997E-002,1.353997E-002,1.353997E-002,1.353997E-002,1.353997E-002,1.353997E-002,1.353997E-002,1.353997E-002,1.353997E-002,
   **   ~~~   ** Supply-to-demand interface deck 1 mass flow rate check value iteration history trace: 1.353997E-002,1.353997E-002,1.353997E-002,1.353997E-002,1.353997E-002,1.353997E-002,1.353997E-002,1.353997E-002,1.353997E-002,1.353997E-002,
   **   ~~~   ** Air System Named = CENTRAL SYSTEM did not converge for energy
   **   ~~~   ** Check values should be zero. Most Recent values listed first.
   **   ~~~   ** Demand-to-Supply interface energy check value iteration history trace: 312.962113,312.962113,312.962113,312.962113,312.962113,312.962113,312.962113,312.962113,312.962113,312.962113,
   **   ~~~   ** Supply-to-demand interface deck 1 energy check value iteration history trace: 182.156271,182.156271,182.156271,182.156271,182.156271,182.156271,182.156271,182.156271,182.156271,182.156271,
   ** Warning ** SimHVAC: Maximum iterations (20) exceeded for all HVAC loops, at ANNUAL, 12/04 08:45 - 09:00
   **   ~~~   ** The solution for one or more of the Air Loop HVAC systems did not appear to converge
   **   ~~~   ** Air System Named = CENTRAL SYSTEM did not converge for mass flow rate
   **   ~~~   ** Check values should be zero. Most Recent values listed first.
   **   ~~~   ** Demand-to-Supply interface mass flow rate check value iteration history trace: 9.182111E-002,9.182111E-002,9.182111E-002,9.182111E-002,9.182111E-002,9.182111E-002,9.182111E-002,9.182111E-002,9.182111E-002,9.182111E-002,
   **   ~~~   ** Supply-to-demand interface deck 1 mass flow rate check value iteration history trace: 9.182111E-002,9.182111E-002,9.182111E-002,9.182111E-002,9.182111E-002,9.182111E-002,9.182111E-002,9.182111E-002,9.182111E-002,9.182111E-002,
   **   ~~~   ** Air System Named = CENTRAL SYSTEM did not converge for energy
   **   ~~~   ** Check values should be zero. Most Recent values listed first.
   **   ~~~   ** Demand-to-Supply interface energy check value iteration history trace: 1819.468951,1819.468951,1819.468951,1819.468950,1819.468950,1819.468950,1819.468950,1819.468950,1819.468950,1819.468950,
   **   ~~~   ** Supply-to-demand interface deck 1 energy check value iteration history trace: 2852.920390,2852.920390,2852.920390,2852.920389,2852.920389,2852.920389,2852.920389,2852.920389,2852.920388,2852.920388,
   ** Warning ** SimHVAC: Maximum iterations (20) exceeded for all HVAC loops, at ANNUAL, 12/15 18:15 - 18:22
   **   ~~~   ** The solution for one or more of the Air Loop HVAC systems did not appear to converge
   **   ~~~   ** Air System Named = CENTRAL SYSTEM did not converge for mass flow rate
   **   ~~~   ** Check values should be zero. Most Recent values listed first.
   **   ~~~   ** Demand-to-Supply interface mass flow rate check value iteration history trace: 6.967144E-002,6.967144E-002,6.967144E-002,6.967144E-002,6.967144E-002,6.967144E-002,6.967144E-002,6.967144E-002,6.967144E-002,6.967144E-002,
   **   ~~~   ** Supply-to-demand interface deck 1 mass flow rate check value iteration history trace: 6.967144E-002,6.967144E-002,6.967144E-002,6.967144E-002,6.967144E-002,6.967144E-002,6.967144E-002,6.967144E-002,6.967144E-002,6.967144E-002,
   **   ~~~   ** Air System Named = CENTRAL SYSTEM did not converge for energy
   **   ~~~   ** Check values should be zero. Most Recent values listed first.
   **   ~~~   ** Demand-to-Supply interface energy check value iteration history trace: 1379.872330,1379.872330,1379.872330,1379.872330,1379.872330,1379.872330,1379.872330,1379.872330,1379.872330,1379.872330,
   **   ~~~   ** Supply-to-demand interface deck 1 energy check value iteration history trace: 2330.232250,2330.232250,2330.232250,2330.232250,2330.232249,2330.232249,2330.232249,2330.232249,2330.232249,2330.232249,
   ** Warning ** SimHVAC: Maximum iterations (20) exceeded for all HVAC loops, at ANNUAL, 12/15 18:53 - 19:00
   **   ~~~   ** The solution for one or more of the Air Loop HVAC systems did not appear to converge
   **   ~~~   ** Air System Named = CENTRAL SYSTEM did not converge for mass flow rate
   **   ~~~   ** Check values should be zero. Most Recent values listed first.
   **   ~~~   ** Demand-to-Supply interface mass flow rate check value iteration history trace: 4.062027E-002,4.062027E-002,4.062027E-002,4.062027E-002,4.062027E-002,4.062027E-002,4.062027E-002,4.062027E-002,4.062027E-002,4.062027E-002,
   **   ~~~   ** Supply-to-demand interface deck 1 mass flow rate check value iteration history trace: 4.062027E-002,4.062027E-002,4.062027E-002,4.062027E-002,4.062027E-002,4.062027E-002,4.062027E-002,4.062027E-002,4.062027E-002,4.062027E-002,
   **   ~~~   ** Air System Named = CENTRAL SYSTEM did not converge for energy
   **   ~~~   ** Check values should be zero. Most Recent values listed first.
   **   ~~~   ** Demand-to-Supply interface energy check value iteration history trace: 804.688328,804.688328,804.688328,804.688328,804.688327,804.688327,804.688327,804.688327,804.688327,804.688327,
   **   ~~~   ** Supply-to-demand interface deck 1 energy check value iteration history trace: 1251.948093,1251.948093,1251.948093,1251.948093,1251.948093,1251.948092,1251.948092,1251.948092,1251.948092,1251.948092,
   ************* Simulation Error Summary *************
   ** Warning ** The following Report Variables were requested but not generated -- check.rdd file
   **   ~~~   ** Either the IDF did not contain these elements, the variable name is misspelled,
   **   ~~~   ** or the requested variable is an advanced output which requires Output : Diagnostics, DisplayAdvancedReportVariables;
   ************* Key=*, VarName=BASEBOARD TOTAL HEATING ENERGY, Frequency=
   ************* Key=*, VarName=WATER HEATER NATURALGAS ENERGY, Frequency=
   ************* Key=*, VarName=COOLING COIL TOTAL HEATING ENERGY, Frequency=
   ************* There are 34 unused schedules in input.
   ************* There are 388 unused week schedules in input.
   ************* There are 396 unused day schedules in input.
   ************* Use Output:Diagnostics,DisplayUnusedSchedules; to see them.
   *************
   ************* ===== Recurring Error Summary =====
   ************* The following recurring error messages occurred.
   *************
   *************  ** Warning ** "TOTAL HOT WATER LOAD" - Target water temperature should be less than or equal to the hot water temperature error continues...
   *************  **   ~~~   **   This error occurred 140581 total times;
   *************  **   ~~~   **   during Warmup 0 times;
   *************  **   ~~~   **   during Sizing 0 times.
   *************  **   ~~~   **   Max=10.810104  Min=5.930867E-004
   *************
   *************  ** Warning ** SimHVAC: Exceeding Maximum iterations for all HVAC loops, during ANNUAL continues
   *************  **   ~~~   **   This error occurred 1 total times;
   *************  **   ~~~   **   during Warmup 0 times;
   *************  **   ~~~   **   during Sizing 0 times.
   *************
   *************
   ************* ===== Final Error Summary =====
   ************* The following error categories occurred.  Consider correcting or noting.
   ************* Nominally Unused Constructions
   ************* ..The nominally unused constructions warning is provided to alert you to potential conditions that can cause
   ************* ..extra time during simulation. Each construction is calculated by the algorithm indicated in the HeatBalanceAlgorithm
   ************* ..object. You may remove the constructions indicated (when you use the DisplayExtraWarnings option).
   *************
   ************* EnergyPlus Warmup Error Summary. During Warmup: 1 Warning; 0 Severe Errors.
   ************* EnergyPlus Sizing Error Summary. During Sizing: 4 Warning; 0 Severe Errors.
   ************* EnergyPlus Completed Successfully-- 140613 Warning; 0 Severe Errors; Elapsed Time=00hr 01min 42.87sec
