Program Version,EnergyPlus, Version 22.2.0-c249759bad, YMD=2023.09.01 19:37,
   ************* Beginning Zone Sizing Calculations
   ** Warning ** ProcessScheduleInput: Schedule:Constant="ALWAYS ON DISCRETE", Schedule Type Limits Name="ONOFF" not found -- will not be validated
   ** Warning ** Foundation:Kiva="KIVA FOUNDATION", no Interior Horizontal Insulation Material Name defined
   **   ~~~   ** Interior Horizontal Insulation Depth will not be used.
   ** Warning ** CheckUsedConstructions: There are 15 nominally unused constructions in input.
   **   ~~~   ** Each Unused construction is shown.
   ************* Construction=INTERIOR FLOOR
   ************* Construction=INTERIOR WINDOW
   ************* Construction=EXTERIOR DOOR
   ************* Construction=INTERIOR DOOR
   ************* Construction=GABLE CONSTRUCTION
   ************* Construction=CRAWL_FLOOR
   ************* Construction=INSULATED PIPE
   ************* Construction=PLAIN PIPE
   ************* Construction=TDD PIPE
   ************* Construction=TDD DOME
   ************* Construction=TDD DIFFUSER
   ************* Construction=CRAWL WALL
   ************* Construction=CEILING-FLOOR-LAYER
   ************* Construction=SLAB CONSTRUCTION W FULL R10 INSULATION
   ************* Construction=SLAB CONSTRUCTION W FULL R5 INSULATION
   ** Warning ** GetDXCoils: Coil:Heating:DX:SingleSpeed="DX_HEATING_COIL" curve values
   **   ~~~   ** ... Defrost Energy Input Ratio Function of Temperature Curve Name = DEFROSTEIR output is not equal to 1.0 (+ or - 10%) at rated conditions.
   **   ~~~   ** ... Curve output at rated conditions = 0.152
   ************* Beginning System Sizing Calculations
   ************* Beginning Plant Sizing Calculations
   ** Warning ** SizeDXCoil Coil:Cooling:DX:SingleSpeed DX_COOLING_COIL
   **   ~~~   ** ...Gross Rated Total Cooling Capacity [W] will be limited by the maximum rated volume flow per rated total capacity ratio.
   **   ~~~   ** ...DX coil volume flow rate ( m3/s ) = 0.573068
   **   ~~~   ** ...Requested capacity ( W ) = 8329.091
   **   ~~~   ** ...Requested flow/capacity ratio ( m3/s/W ) = 6.880E-005
   **   ~~~   ** ...Maximum flow/capacity ratio ( m3/s/W ) = 6.041E-005
   **   ~~~   ** ...Adjusted capacity ( W ) = 9486.323
   ** Warning ** SizeDXCoil Coil:Heating:DX:SingleSpeed DX_HEATING_COIL
   **   ~~~   ** ...Gross Rated Heating Capacity [W] will be limited by the maximum rated volume flow per rated total capacity ratio.
   **   ~~~   ** ...DX coil volume flow rate ( m3/s ) = 0.573068
   **   ~~~   ** ...Requested capacity ( W ) = 9486.323
   **   ~~~   ** ...Requested flow/capacity ratio ( m3/s/W ) = 6.041E-005
   **   ~~~   ** ...Maximum flow/capacity ratio ( m3/s/W ) = 6.041E-005
   **   ~~~   ** ...Adjusted capacity ( W ) = 9486.323
   ** Warning ** Coil:WaterHeating:AirToWaterHeatPump:Wrapped "HEAT PUMP WATER HEATER EVAPORATOR": Rated air volume flow rate per watt of rated total water heating capacity is out of range
   **   ~~~   ** Min Rated Vol Flow Per Watt=[4.027E-005], Rated Vol Flow Per Watt=[1.510E-004], Max Rated Vol Flow Per Watt=[8.056E-005]. See Input-Output Reference Manual for valid range.
   ************* SizeFan: : Potential issue with equipment sizing for Fan:OnOff HEAT PUMP WATER HEATER FAN
   **   ~~~   ** User-Specified Maximum Flow Rate [m3/s] = 0.22653
   **   ~~~   ** differs from Design Size Maximum Flow Rate [m3/s] = 7.55250E-002
   **   ~~~   ** This may, or may not, indicate mismatched component sizes.
   **   ~~~   ** Verify that the value entered is intended and is consistent with other components.
   ** Warning ** Water heater = WATER HEATER TANK:  Recovery Efficiency and Energy Factor could not be calculated during the test for standard ratings
   **   ~~~   ** Setpoint was never recovered and/or heater never turned on
   ** Warning ** Check input. Pump nominal power or motor efficiency is set to 0, for pump=MAINS PRESSURE
   ** Warning ** Output:Meter: invalid Key Name="ELECTRIC_RANGE:INTERIOREQUIPMENT:ELECTRICITY" - not found.
   ** Warning ** Output:Meter: invalid Key Name="ELECTRIC_DRYER:INTERIOREQUIPMENT:ELECTRICITY" - not found.
   ** Warning ** Output:Meter: invalid Key Name="HEATRECOVERY:ELECTRICITY" - not found.
   ** Warning ** Output:Meter: invalid Key Name="HEATING:NATURALGAS" - not found.
   ** Warning ** Output:Meter: invalid Key Name="WATERSYSTEMS:NATURALGAS" - not found.
   ** Warning ** Output:Meter: invalid Key Name="PROPANE:FACILITY" - not found.
   ** Warning ** Output:Meter: invalid Key Name="HEATING:PROPANE" - not found.
   ************* Testing Individual Branch Integrity
   ************* All Branches passed integrity testing
   ************* Testing Individual Supply Air Path Integrity
   ************* All Supply Air Paths passed integrity testing
   ************* Testing Individual Return Air Path Integrity
   ************* All Return Air Paths passed integrity testing
   ************* No node connection errors were found.
   ************* Beginning Simulation
   ** Warning ** AirflowNetwork::Solver::validate_distribution: Heat pump water heater is simulated along with an AirflowNetwork but is not included in the AirflowNetwork.
   ** Warning ** CalcEquipmentFlowRates: "TOTAL HOT WATER LOAD" - Target water temperature is greater than the hot water temperature by (2.56 C)
   **   ~~~   **  Environment=EXTREME_WINTER, at Simulation time=12/22 06:00 - 06:15
   **   ~~~   ** ...target water temperature     = 53.33 C
   **   ~~~   ** ...hot water temperature        = 50.77 C
   **   ~~~   ** ...Target water temperature should be less than or equal to the hot water temperature. Verify temperature setpoints and schedules.
   ** Warning ** SimHVAC: Maximum iterations (20) exceeded for all HVAC loops, at EXTREME_WINTER, 12/22 19:15 - 19:30
   **   ~~~   ** The solution for one or more of the Air Loop HVAC systems did not appear to converge
   **   ~~~   ** Air System Named = CENTRAL SYSTEM did not converge for mass flow rate
   **   ~~~   ** Check values should be zero. Most Recent values listed first.
   **   ~~~   ** Demand-to-Supply interface mass flow rate check value iteration history trace: 6.591485E-002,6.591485E-002,6.591485E-002,6.591485E-002,6.591485E-002,6.591485E-002,6.591485E-002,6.591485E-002,6.591485E-002,6.591485E-002,
   **   ~~~   ** Supply-to-demand interface deck 1 mass flow rate check value iteration history trace: 6.591485E-002,6.591485E-002,6.591485E-002,6.591485E-002,6.591485E-002,6.591485E-002,6.591485E-002,6.591485E-002,6.591485E-002,6.591485E-002,
   **   ~~~   ** Air System Named = CENTRAL SYSTEM did not converge for energy
   **   ~~~   ** Check values should be zero. Most Recent values listed first.
   **   ~~~   ** Demand-to-Supply interface energy check value iteration history trace: 1306.785271,1306.785271,1306.785271,1306.785271,1306.785271,1306.785271,1306.785271,1306.785271,1306.785270,1306.785270,
   **   ~~~   ** Supply-to-demand interface deck 1 energy check value iteration history trace: 2274.693069,2274.693069,2274.693069,2274.693069,2274.693069,2274.693069,2274.693069,2274.693069,2274.693069,2274.693068,
   ** Warning ** SimHVAC: Maximum iterations (20) exceeded for all HVAC loops, at EXTREME_WINTER, 12/24 16:00 - 16:15
   **   ~~~   ** The solution for one or more of the Air Loop HVAC systems did not appear to converge
   **   ~~~   ** Air System Named = CENTRAL SYSTEM did not converge for mass flow rate
   **   ~~~   ** Check values should be zero. Most Recent values listed first.
   **   ~~~   ** Demand-to-Supply interface mass flow rate check value iteration history trace: 5.678441E-002,5.678441E-002,5.678441E-002,5.678441E-002,5.678441E-002,5.678441E-002,5.678441E-002,5.678441E-002,5.678441E-002,5.678441E-002,
   **   ~~~   ** Supply-to-demand interface deck 1 mass flow rate check value iteration history trace: 5.678441E-002,5.678441E-002,5.678441E-002,5.678441E-002,5.678441E-002,5.678441E-002,5.678441E-002,5.678441E-002,5.678441E-002,5.678441E-002,
   **   ~~~   ** Air System Named = CENTRAL SYSTEM did not converge for energy
   **   ~~~   ** Check values should be zero. Most Recent values listed first.
   **   ~~~   ** Demand-to-Supply interface energy check value iteration history trace: 1126.595587,1126.595587,1126.595587,1126.595587,1126.595587,1126.595587,1126.595587,1126.595587,1126.595587,1126.595587,
   **   ~~~   ** Supply-to-demand interface deck 1 energy check value iteration history trace: 2021.448924,2021.448924,2021.448924,2021.448924,2021.448924,2021.448923,2021.448923,2021.448923,2021.448923,2021.448923,
   ** Warning ** SimHVAC: Maximum iterations (20) exceeded for all HVAC loops, at EXTREME_WINTER, 12/25 00:15 - 00:30
   **   ~~~   ** The solution for one or more of the Air Loop HVAC systems did not appear to converge
   **   ~~~   ** Air System Named = CENTRAL SYSTEM did not converge for mass flow rate
   **   ~~~   ** Check values should be zero. Most Recent values listed first.
   **   ~~~   ** Demand-to-Supply interface mass flow rate check value iteration history trace: 5.185748E-002,5.185748E-002,5.185748E-002,5.185748E-002,5.185748E-002,5.185748E-002,5.185748E-002,5.185748E-002,5.185748E-002,5.185748E-002,
   **   ~~~   ** Supply-to-demand interface deck 1 mass flow rate check value iteration history trace: 5.185748E-002,5.185748E-002,5.185748E-002,5.185748E-002,5.185748E-002,5.185748E-002,5.185748E-002,5.185748E-002,5.185748E-002,5.185748E-002,
   **   ~~~   ** Air System Named = CENTRAL SYSTEM did not converge for energy
   **   ~~~   ** Check values should be zero. Most Recent values listed first.
   **   ~~~   ** Demand-to-Supply interface energy check value iteration history trace: 980.137270,980.137270,980.137270,980.137270,980.137270,980.137269,980.137269,980.137269,980.137269,980.137269,
   **   ~~~   ** Supply-to-demand interface deck 1 energy check value iteration history trace: 1800.089150,1800.089150,1800.089150,1800.089150,1800.089150,1800.089150,1800.089150,1800.089150,1800.089150,1800.089150,
   ** Warning ** SimHVAC: Maximum iterations (20) exceeded for all HVAC loops, at EXTREME_WINTER, 12/26 15:00 - 15:15
   **   ~~~   ** The solution for one or more of the Air Loop HVAC systems did not appear to converge
   **   ~~~   ** Air System Named = CENTRAL SYSTEM did not converge for mass flow rate
   **   ~~~   ** Check values should be zero. Most Recent values listed first.
   **   ~~~   ** Demand-to-Supply interface mass flow rate check value iteration history trace: 7.582153E-002,7.582153E-002,7.582153E-002,7.582153E-002,7.582153E-002,7.582153E-002,7.582153E-002,7.582153E-002,7.582153E-002,7.582153E-002,
   **   ~~~   ** Supply-to-demand interface deck 1 mass flow rate check value iteration history trace: 7.582153E-002,7.582153E-002,7.582153E-002,7.582153E-002,7.582153E-002,7.582153E-002,7.582153E-002,7.582153E-002,7.582153E-002,7.582153E-002,
   **   ~~~   ** Air System Named = CENTRAL SYSTEM did not converge for energy
   **   ~~~   ** Check values should be zero. Most Recent values listed first.
   **   ~~~   ** Demand-to-Supply interface energy check value iteration history trace: 1502.601665,1502.601665,1502.601665,1502.601665,1502.601664,1502.601664,1502.601664,1502.601664,1502.601664,1502.601664,
   **   ~~~   ** Supply-to-demand interface deck 1 energy check value iteration history trace: 2396.628138,2396.628138,2396.628138,2396.628138,2396.628138,2396.628137,2396.628137,2396.628137,2396.628137,2396.628137,
   ** Warning ** SimHVAC: Maximum iterations (20) exceeded for all HVAC loops, at EXTREME_WINTER, 12/30 00:45 - 01:00
   **   ~~~   ** The solution for one or more of the Air Loop HVAC systems did not appear to converge
   **   ~~~   ** Air System Named = CENTRAL SYSTEM did not converge for mass flow rate
   **   ~~~   ** Check values should be zero. Most Recent values listed first.
   **   ~~~   ** Demand-to-Supply interface mass flow rate check value iteration history trace: 3.214789E-002,3.214789E-002,3.214789E-002,3.214789E-002,3.214789E-002,3.214789E-002,3.214789E-002,3.214789E-002,3.214789E-002,3.214789E-002,
   **   ~~~   ** Supply-to-demand interface deck 1 mass flow rate check value iteration history trace: 3.214789E-002,3.214789E-002,3.214789E-002,3.214789E-002,3.214789E-002,3.214789E-002,3.214789E-002,3.214789E-002,3.214789E-002,3.214789E-002,
   **   ~~~   ** Air System Named = CENTRAL SYSTEM did not converge for energy
   **   ~~~   ** Check values should be zero. Most Recent values listed first.
   **   ~~~   ** Demand-to-Supply interface energy check value iteration history trace: 600.061674,600.061674,600.061674,600.061674,600.061674,600.061674,600.061674,600.061674,600.061674,600.061674,
   **   ~~~   ** Supply-to-demand interface deck 1 energy check value iteration history trace: 942.261137,942.261137,942.261137,942.261137,942.261137,942.261136,942.261136,942.261136,942.261136,942.261136,
   ** Warning ** SimHVAC: Maximum iterations (20) exceeded for all HVAC loops, at EXTREME_WINTER, 01/02 00:38 - 00:45
   **   ~~~   ** The solution for one or more of the Air Loop HVAC systems did not appear to converge
   **   ~~~   ** Air System Named = CENTRAL SYSTEM did not converge for mass flow rate
   **   ~~~   ** Check values should be zero. Most Recent values listed first.
   **   ~~~   ** Demand-to-Supply interface mass flow rate check value iteration history trace: 3.135643E-002,3.135643E-002,3.135643E-002,3.135643E-002,3.135643E-002,3.135643E-002,3.135643E-002,3.135643E-002,3.135643E-002,3.135643E-002,
   **   ~~~   ** Supply-to-demand interface deck 1 mass flow rate check value iteration history trace: 3.135643E-002,3.135643E-002,3.135643E-002,3.135643E-002,3.135643E-002,3.135643E-002,3.135643E-002,3.135643E-002,3.135643E-002,3.135643E-002,
   **   ~~~   ** Air System Named = CENTRAL SYSTEM did not converge for energy
   **   ~~~   ** Check values should be zero. Most Recent values listed first.
   **   ~~~   ** Demand-to-Supply interface energy check value iteration history trace: 582.088807,582.088807,582.088807,582.088807,582.088807,582.088807,582.088806,582.088806,582.088806,582.088806,
   **   ~~~   ** Supply-to-demand interface deck 1 energy check value iteration history trace: 926.166276,926.166276,926.166276,926.166276,926.166276,926.166276,926.166276,926.166276,926.166276,926.166276,
   ** Severe  ** CheckWarmupConvergence: Loads Initialization, Zone="LIVING" did not converge after 25 warmup days.
   **   ~~~   ** See Warmup Convergence Information in .eio file for details.
   **   ~~~   ** ...Environment(SizingPeriod)="EXTREME_SUMMER"
   **   ~~~   ** ..Max Temp Comparison = 5.82E-004 vs Temperature Convergence Tolerance=5.00E-002 - Pass Convergence
   **   ~~~   ** ..Min Temp Comparison = 9.63E-002 vs Temperature Convergence Tolerance=5.00E-002 - Fail Convergence
   **   ~~~   ** ..Max Heat Load Comparison = 0.5295 vs Loads Convergence Tolerance=5.00E-002 - Fail Convergence
   **   ~~~   ** ..Max Cool Load Comparison = 9.4009E-004 vs Loads Convergence Tolerance=5.00E-002 - Pass Convergence
   ** Severe  ** CheckWarmupConvergence: Loads Initialization, Zone="ATTIC" did not converge after 25 warmup days.
   **   ~~~   ** ...Environment(SizingPeriod)="EXTREME_SUMMER"
   **   ~~~   ** ..Max Temp Comparison = 2.70E-003 vs Temperature Convergence Tolerance=5.00E-002 - Pass Convergence
   **   ~~~   ** ..Min Temp Comparison = 0.22 vs Temperature Convergence Tolerance=5.00E-002 - Fail Convergence
   **   ~~~   ** ..Max Heat Load Comparison = 0.0000 vs Loads Convergence Tolerance=5.00E-002 - Pass Convergence
   **   ~~~   ** ..Max Cool Load Comparison = 0.0000 vs Loads Convergence Tolerance=5.00E-002 - Pass Convergence
   ** Warning ** SimHVAC: Maximum iterations (20) exceeded for all HVAC loops, at ANNUAL, 01/12 01:15 - 01:30
   **   ~~~   ** The solution for one or more of the Air Loop HVAC systems did not appear to converge
   **   ~~~   ** Air System Named = CENTRAL SYSTEM did not converge for mass flow rate
   **   ~~~   ** Check values should be zero. Most Recent values listed first.
   **   ~~~   ** Demand-to-Supply interface mass flow rate check value iteration history trace: 6.691480E-002,6.691480E-002,6.691480E-002,6.691480E-002,6.691480E-002,6.691480E-002,6.691480E-002,6.691480E-002,6.691480E-002,6.691480E-002,
   **   ~~~   ** Supply-to-demand interface deck 1 mass flow rate check value iteration history trace: 6.691480E-002,6.691480E-002,6.691480E-002,6.691480E-002,6.691480E-002,6.691480E-002,6.691480E-002,6.691480E-002,6.691480E-002,6.691480E-002,
   **   ~~~   ** Air System Named = CENTRAL SYSTEM did not converge for energy
   **   ~~~   ** Check values should be zero. Most Recent values listed first.
   **   ~~~   ** Demand-to-Supply interface energy check value iteration history trace: 1249.448621,1249.448621,1249.448621,1249.448621,1249.448621,1249.448621,1249.448620,1249.448620,1249.448620,1249.448620,
   **   ~~~   ** Supply-to-demand interface deck 1 energy check value iteration history trace: 2038.092922,2038.092922,2038.092922,2038.092922,2038.092921,2038.092921,2038.092921,2038.092921,2038.092921,2038.092921,
   ** Warning ** SimHVAC: Maximum iterations (20) exceeded for all HVAC loops, at ANNUAL, 02/08 08:45 - 09:00
   **   ~~~   ** The solution for one or more of the Air Loop HVAC systems did not appear to converge
   **   ~~~   ** Air System Named = CENTRAL SYSTEM did not converge for mass flow rate
   **   ~~~   ** Check values should be zero. Most Recent values listed first.
   **   ~~~   ** Demand-to-Supply interface mass flow rate check value iteration history trace: 5.469179E-002,5.469179E-002,5.469179E-002,5.469179E-002,5.469179E-002,5.469179E-002,5.469179E-002,5.469179E-002,5.469179E-002,5.469179E-002,
   **   ~~~   ** Supply-to-demand interface deck 1 mass flow rate check value iteration history trace: 5.469179E-002,5.469179E-002,5.469179E-002,5.469179E-002,5.469179E-002,5.469179E-002,5.469179E-002,5.469179E-002,5.469179E-002,5.469179E-002,
   **   ~~~   ** Air System Named = CENTRAL SYSTEM did not converge for energy
   **   ~~~   ** Check values should be zero. Most Recent values listed first.
   **   ~~~   ** Demand-to-Supply interface energy check value iteration history trace: 1083.766737,1083.766737,1083.766737,1083.766737,1083.766737,1083.766737,1083.766737,1083.766737,1083.766737,1083.766737,
   **   ~~~   ** Supply-to-demand interface deck 1 energy check value iteration history trace: 1924.145492,1924.145492,1924.145492,1924.145492,1924.145492,1924.145492,1924.145492,1924.145492,1924.145492,1924.145492,
   ** Warning ** SimHVAC: Maximum iterations (20) exceeded for all HVAC loops, at ANNUAL, 02/11 09:30 - 09:32
   **   ~~~   ** The solution for one or more of the Air Loop HVAC systems did not appear to converge
   **   ~~~   ** Air System Named = CENTRAL SYSTEM did not converge for mass flow rate
   **   ~~~   ** Check values should be zero. Most Recent values listed first.
   **   ~~~   ** Demand-to-Supply interface mass flow rate check value iteration history trace: 8.053776E-002,8.053776E-002,8.053776E-002,8.053776E-002,8.053776E-002,8.053776E-002,8.053776E-002,8.053776E-002,8.053776E-002,8.053776E-002,
   **   ~~~   ** Supply-to-demand interface deck 1 mass flow rate check value iteration history trace: 8.053776E-002,8.053776E-002,8.053776E-002,8.053776E-002,8.053776E-002,8.053776E-002,8.053776E-002,8.053776E-002,8.053776E-002,8.053776E-002,
   **   ~~~   ** Air System Named = CENTRAL SYSTEM did not converge for energy
   **   ~~~   ** Check values should be zero. Most Recent values listed first.
   **   ~~~   ** Demand-to-Supply interface energy check value iteration history trace: 1596.004425,1596.004425,1596.004425,1596.004425,1596.004425,1596.004425,1596.004425,1596.004425,1596.004424,1596.004424,
   **   ~~~   ** Supply-to-demand interface deck 1 energy check value iteration history trace: 2602.361958,2602.361958,2602.361958,2602.361957,2602.361957,2602.361957,2602.361957,2602.361957,2602.361957,2602.361957,
   ** Warning ** SimHVAC: Maximum iterations (20) exceeded for all HVAC loops, at ANNUAL, 02/12 18:53 - 19:00
   **   ~~~   ** The solution for one or more of the Air Loop HVAC systems did not appear to converge
   **   ~~~   ** Air System Named = CENTRAL SYSTEM did not converge for mass flow rate
   **   ~~~   ** Check values should be zero. Most Recent values listed first.
   **   ~~~   ** Demand-to-Supply interface mass flow rate check value iteration history trace: 7.196679E-002,7.196679E-002,7.196679E-002,7.196679E-002,7.196679E-002,7.196679E-002,7.196679E-002,7.196679E-002,7.196679E-002,7.196679E-002,
   **   ~~~   ** Supply-to-demand interface deck 1 mass flow rate check value iteration history trace: 7.196679E-002,7.196679E-002,7.196679E-002,7.196679E-002,7.196679E-002,7.196679E-002,7.196679E-002,7.196679E-002,7.196679E-002,7.196679E-002,
   **   ~~~   ** Air System Named = CENTRAL SYSTEM did not converge for energy
   **   ~~~   ** Check values should be zero. Most Recent values listed first.
   **   ~~~   ** Demand-to-Supply interface energy check value iteration history trace: 1424.981224,1424.981224,1424.981224,1424.981224,1424.981224,1424.981224,1424.981224,1424.981224,1424.981224,1424.981224,
   **   ~~~   ** Supply-to-demand interface deck 1 energy check value iteration history trace: 2480.045067,2480.045067,2480.045066,2480.045066,2480.045066,2480.045066,2480.045066,2480.045066,2480.045066,2480.045066,
   ** Warning ** SimHVAC: Maximum iterations (20) exceeded for all HVAC loops, at ANNUAL, 02/25 09:32 - 09:35
   **   ~~~   ** The solution for one or more of the Air Loop HVAC systems did not appear to converge
   **   ~~~   ** Air System Named = CENTRAL SYSTEM did not converge for mass flow rate
   **   ~~~   ** Check values should be zero. Most Recent values listed first.
   **   ~~~   ** Demand-to-Supply interface mass flow rate check value iteration history trace: 8.443070E-002,8.443070E-002,8.443070E-002,8.443070E-002,8.443070E-002,8.443070E-002,8.443070E-002,8.443070E-002,8.443070E-002,8.443070E-002,
   **   ~~~   ** Supply-to-demand interface deck 1 mass flow rate check value iteration history trace: 8.443070E-002,8.443070E-002,8.443070E-002,8.443070E-002,8.443070E-002,8.443070E-002,8.443070E-002,8.443070E-002,8.443070E-002,8.443070E-002,
   **   ~~~   ** Air System Named = CENTRAL SYSTEM did not converge for energy
   **   ~~~   ** Check values should be zero. Most Recent values listed first.
   **   ~~~   ** Demand-to-Supply interface energy check value iteration history trace: 1673.207962,1673.207962,1673.207962,1673.207962,1673.207962,1673.207962,1673.207962,1673.207962,1673.207962,1673.207962,
   **   ~~~   ** Supply-to-demand interface deck 1 energy check value iteration history trace: 2714.768643,2714.768643,2714.768643,2714.768642,2714.768642,2714.768642,2714.768642,2714.768642,2714.768642,2714.768642,
   ** Warning ** SimHVAC: Maximum iterations (20) exceeded for all HVAC loops, at ANNUAL, 03/29 06:53 - 07:00
   **   ~~~   ** The solution for one or more of the Air Loop HVAC systems did not appear to converge
   **   ~~~   ** Air System Named = CENTRAL SYSTEM did not converge for mass flow rate
   **   ~~~   ** Check values should be zero. Most Recent values listed first.
   **   ~~~   ** Demand-to-Supply interface mass flow rate check value iteration history trace: 6.530799E-002,6.530799E-002,6.530799E-002,6.530799E-002,6.530799E-002,6.530799E-002,6.530799E-002,6.530799E-002,6.530799E-002,6.530799E-002,
   **   ~~~   ** Supply-to-demand interface deck 1 mass flow rate check value iteration history trace: 6.530799E-002,6.530799E-002,6.530799E-002,6.530799E-002,6.530799E-002,6.530799E-002,6.530799E-002,6.530799E-002,6.530799E-002,6.530799E-002,
   **   ~~~   ** Air System Named = CENTRAL SYSTEM did not converge for energy
   **   ~~~   ** Check values should be zero. Most Recent values listed first.
   **   ~~~   ** Demand-to-Supply interface energy check value iteration history trace: 1298.568122,1298.568122,1298.568122,1298.568122,1298.568122,1298.568122,1298.568122,1298.568122,1298.568122,1298.568122,
   **   ~~~   ** Supply-to-demand interface deck 1 energy check value iteration history trace: 2312.119737,2312.119737,2312.119736,2312.119736,2312.119736,2312.119736,2312.119736,2312.119736,2312.119736,2312.119736,
   ** Warning ** SimHVAC: Maximum iterations (20) exceeded for all HVAC loops, at ANNUAL, 04/10 03:05 - 03:10
   **   ~~~   ** The solution for one or more of the Air Loop HVAC systems did not appear to converge
   **   ~~~   ** Air System Named = CENTRAL SYSTEM did not converge for mass flow rate
   **   ~~~   ** Check values should be zero. Most Recent values listed first.
   **   ~~~   ** Demand-to-Supply interface mass flow rate check value iteration history trace: 5.465413E-002,5.465413E-002,5.465413E-002,5.465413E-002,5.465413E-002,5.465413E-002,5.465413E-002,5.465413E-002,5.465413E-002,5.465413E-002,
   **   ~~~   ** Supply-to-demand interface deck 1 mass flow rate check value iteration history trace: 5.465413E-002,5.465413E-002,5.465413E-002,5.465413E-002,5.465413E-002,5.465413E-002,5.465413E-002,5.465413E-002,5.465413E-002,5.465413E-002,
   **   ~~~   ** Air System Named = CENTRAL SYSTEM did not converge for energy
   **   ~~~   ** Check values should be zero. Most Recent values listed first.
   **   ~~~   ** Demand-to-Supply interface energy check value iteration history trace: 1021.698178,1021.698178,1021.698178,1021.698178,1021.698178,1021.698178,1021.698178,1021.698178,1021.698178,1021.698178,
   **   ~~~   ** Supply-to-demand interface deck 1 energy check value iteration history trace: 1697.481169,1697.481169,1697.481169,1697.481169,1697.481168,1697.481168,1697.481168,1697.481168,1697.481168,1697.481168,
   ** Warning ** SimHVAC: Maximum iterations (20) exceeded for all HVAC loops, at ANNUAL, 04/19 06:55 - 07:00
   **   ~~~   ** The solution for one or more of the Air Loop HVAC systems did not appear to converge
   **   ~~~   ** Air System Named = CENTRAL SYSTEM did not converge for mass flow rate
   **   ~~~   ** Check values should be zero. Most Recent values listed first.
   **   ~~~   ** Demand-to-Supply interface mass flow rate check value iteration history trace: 6.812327E-002,6.812327E-002,6.812327E-002,6.812327E-002,6.812327E-002,6.812327E-002,6.812327E-002,6.812327E-002,6.812327E-002,6.812327E-002,
   **   ~~~   ** Supply-to-demand interface deck 1 mass flow rate check value iteration history trace: 6.812327E-002,6.812327E-002,6.812327E-002,6.812327E-002,6.812327E-002,6.812327E-002,6.812327E-002,6.812327E-002,6.812327E-002,6.812327E-002,
   **   ~~~   ** Air System Named = CENTRAL SYSTEM did not converge for energy
   **   ~~~   ** Check values should be zero. Most Recent values listed first.
   **   ~~~   ** Demand-to-Supply interface energy check value iteration history trace: 1352.853148,1352.853148,1352.853148,1352.853148,1352.853148,1352.853148,1352.853148,1352.853148,1352.853148,1352.853148,
   **   ~~~   ** Supply-to-demand interface deck 1 energy check value iteration history trace: 2355.530385,2355.530385,2355.530385,2355.530384,2355.530384,2355.530384,2355.530384,2355.530384,2355.530384,2355.530384,
   ************* Simulation Error Summary *************
   ** Warning ** The following Report Variables were requested but not generated -- check.rdd file
   **   ~~~   ** Either the IDF did not contain these elements, the variable name is misspelled,
   **   ~~~   ** or the requested variable is an advanced output which requires Output : Diagnostics, DisplayAdvancedReportVariables;
   ************* Key=*, VarName=BASEBOARD TOTAL HEATING ENERGY, Frequency=
   ************* Key=*, VarName=WATER HEATER NATURALGAS ENERGY, Frequency=
   ************* Key=*, VarName=COOLING COIL TOTAL HEATING ENERGY, Frequency=
   ************* There are 34 unused schedules in input.
   ************* There are 388 unused week schedules in input.
   ************* There are 396 unused day schedules in input.
   ************* Use Output:Diagnostics,DisplayUnusedSchedules; to see them.
   *************
   ************* ===== Recurring Error Summary =====
   ************* The following recurring error messages occurred.
   *************
   *************  ** Warning ** "TOTAL HOT WATER LOAD" - Target water temperature should be less than or equal to the hot water temperature error continues...
   *************  **   ~~~   **   This error occurred 166133 total times;
   *************  **   ~~~   **   during Warmup 0 times;
   *************  **   ~~~   **   during Sizing 0 times.
   *************  **   ~~~   **   Max=9.551194  Min=1.171536E-003
   *************
   *************  ** Warning ** SimHVAC: Exceeding Maximum iterations for all HVAC loops, during ANNUAL continues
   *************  **   ~~~   **   This error occurred 6 total times;
   *************  **   ~~~   **   during Warmup 0 times;
   *************  **   ~~~   **   during Sizing 0 times.
   *************
   *************
   ************* ===== Final Error Summary =====
   ************* The following error categories occurred.  Consider correcting or noting.
   ************* Loads Initialization did not Converge
   ************* ..1) very high thermal mass such as very thick concrete (solution: increase max number of warmup
   ************* ..   days in the BUILDING object);
   ************* ..2) moderate mass and inadequate space conditioning such that the building keeps getting warmer
   ************* ..   and warmer on successive days (solution: add HVAC, check building thermal properties,
   ************* ..   check if infiltration is included, make sure HVAC properly controlled);
   ************* ..3) a soil layer modeled below the concrete slab - (solution remove this layer and read about
   ************* ..   ground temperatures in the Auxiliary Programs document).
   ************* ..4) unreasonable (too small) limits in the BUILDING object for temperature (.4 default) or
   ************* ..   loads tolerances (.04 default)
   ************* Nominally Unused Constructions
   ************* ..The nominally unused constructions warning is provided to alert you to potential conditions that can cause
   ************* ..extra time during simulation. Each construction is calculated by the algorithm indicated in the HeatBalanceAlgorithm
   ************* ..object. You may remove the constructions indicated (when you use the DisplayExtraWarnings option).
   *************
   ************* EnergyPlus Warmup Error Summary. During Warmup: 1 Warning; 2 Severe Errors.
   ************* EnergyPlus Sizing Error Summary. During Sizing: 4 Warning; 0 Severe Errors.
   ************* EnergyPlus Completed Successfully-- 166172 Warning; 2 Severe Errors; Elapsed Time=00hr 02min  2.83sec
