Program Version,EnergyPlus, Version 22.2.0-c249759bad, YMD=2023.09.01 20:12,
   ************* Beginning Zone Sizing Calculations
   ** Warning ** ProcessScheduleInput: Schedule:Constant="ALWAYS ON DISCRETE", Schedule Type Limits Name="ONOFF" not found -- will not be validated
   ** Warning ** Foundation:Kiva="KIVA FOUNDATION", no Interior Horizontal Insulation Material Name defined
   **   ~~~   ** Interior Horizontal Insulation Depth will not be used.
   ** Warning ** CheckUsedConstructions: There are 15 nominally unused constructions in input.
   **   ~~~   ** Each Unused construction is shown.
   ************* Construction=INTERIOR FLOOR
   ************* Construction=INTERIOR WINDOW
   ************* Construction=EXTERIOR DOOR
   ************* Construction=INTERIOR DOOR
   ************* Construction=GABLE CONSTRUCTION
   ************* Construction=CRAWL_FLOOR
   ************* Construction=INSULATED PIPE
   ************* Construction=PLAIN PIPE
   ************* Construction=TDD PIPE
   ************* Construction=TDD DOME
   ************* Construction=TDD DIFFUSER
   ************* Construction=CRAWL WALL
   ************* Construction=CEILING-FLOOR-LAYER
   ************* Construction=SLAB CONSTRUCTION W FULL R10 INSULATION
   ************* Construction=SLAB CONSTRUCTION W FULL R5 INSULATION
   ** Warning ** GetDXCoils: Coil:Heating:DX:SingleSpeed="DX_HEATING_COIL" curve values
   **   ~~~   ** ... Defrost Energy Input Ratio Function of Temperature Curve Name = DEFROSTEIR output is not equal to 1.0 (+ or - 10%) at rated conditions.
   **   ~~~   ** ... Curve output at rated conditions = 0.152
   ************* Beginning System Sizing Calculations
   ************* Beginning Plant Sizing Calculations
   ** Warning ** SizeDXCoil Coil:Cooling:DX:SingleSpeed DX_COOLING_COIL
   **   ~~~   ** ...Gross Rated Total Cooling Capacity [W] will be limited by the maximum rated volume flow per rated total capacity ratio.
   **   ~~~   ** ...DX coil volume flow rate ( m3/s ) = 0.395506
   **   ~~~   ** ...Requested capacity ( W ) = 5940.522
   **   ~~~   ** ...Requested flow/capacity ratio ( m3/s/W ) = 6.657E-005
   **   ~~~   ** ...Maximum flow/capacity ratio ( m3/s/W ) = 6.041E-005
   **   ~~~   ** ...Adjusted capacity ( W ) = 6547.032
   ** Warning ** Coil:WaterHeating:AirToWaterHeatPump:Wrapped "HEAT PUMP WATER HEATER EVAPORATOR": Rated air volume flow rate per watt of rated total water heating capacity is out of range
   **   ~~~   ** Min Rated Vol Flow Per Watt=[4.027E-005], Rated Vol Flow Per Watt=[1.510E-004], Max Rated Vol Flow Per Watt=[8.056E-005]. See Input-Output Reference Manual for valid range.
   ************* SizeFan: : Potential issue with equipment sizing for Fan:OnOff HEAT PUMP WATER HEATER FAN
   **   ~~~   ** User-Specified Maximum Flow Rate [m3/s] = 0.22653
   **   ~~~   ** differs from Design Size Maximum Flow Rate [m3/s] = 7.55250E-002
   **   ~~~   ** This may, or may not, indicate mismatched component sizes.
   **   ~~~   ** Verify that the value entered is intended and is consistent with other components.
   ** Warning ** Water heater = WATER HEATER TANK:  Recovery Efficiency and Energy Factor could not be calculated during the test for standard ratings
   **   ~~~   ** Setpoint was never recovered and/or heater never turned on
   ** Warning ** Check input. Pump nominal power or motor efficiency is set to 0, for pump=MAINS PRESSURE
   ** Warning ** Output:Meter: invalid Key Name="ELECTRIC_RANGE:INTERIOREQUIPMENT:ELECTRICITY" - not found.
   ** Warning ** Output:Meter: invalid Key Name="ELECTRIC_DRYER:INTERIOREQUIPMENT:ELECTRICITY" - not found.
   ** Warning ** Output:Meter: invalid Key Name="HEATRECOVERY:ELECTRICITY" - not found.
   ** Warning ** Output:Meter: invalid Key Name="HEATING:NATURALGAS" - not found.
   ** Warning ** Output:Meter: invalid Key Name="WATERSYSTEMS:NATURALGAS" - not found.
   ** Warning ** Output:Meter: invalid Key Name="PROPANE:FACILITY" - not found.
   ** Warning ** Output:Meter: invalid Key Name="HEATING:PROPANE" - not found.
   ************* Testing Individual Branch Integrity
   ************* All Branches passed integrity testing
   ************* Testing Individual Supply Air Path Integrity
   ************* All Supply Air Paths passed integrity testing
   ************* Testing Individual Return Air Path Integrity
   ************* All Return Air Paths passed integrity testing
   ************* No node connection errors were found.
   ************* Beginning Simulation
   ** Warning ** AirflowNetwork::Solver::validate_distribution: Heat pump water heater is simulated along with an AirflowNetwork but is not included in the AirflowNetwork.
   ** Warning ** CalcEquipmentFlowRates: "TOTAL HOT WATER LOAD" - Target water temperature is greater than the hot water temperature by (3.73 C)
   **   ~~~   **  Environment=EXTREME_WINTER, at Simulation time=01/18 07:00 - 07:15
   **   ~~~   ** ...target water temperature     = 53.33 C
   **   ~~~   ** ...hot water temperature        = 49.61 C
   **   ~~~   ** ...Target water temperature should be less than or equal to the hot water temperature. Verify temperature setpoints and schedules.
   ** Warning ** SimHVAC: Maximum iterations (20) exceeded for all HVAC loops, at ANNUAL, 02/22 14:45 - 15:00
   **   ~~~   ** The solution for one or more of the Air Loop HVAC systems did not appear to converge
   **   ~~~   ** Air System Named = CENTRAL SYSTEM did not converge for mass flow rate
   **   ~~~   ** Check values should be zero. Most Recent values listed first.
   **   ~~~   ** Demand-to-Supply interface mass flow rate check value iteration history trace: 6.323681E-002,6.323681E-002,6.323681E-002,6.323681E-002,6.323681E-002,6.323681E-002,6.323681E-002,6.323681E-002,6.323681E-002,6.323681E-002,
   **   ~~~   ** Supply-to-demand interface deck 1 mass flow rate check value iteration history trace: 6.323681E-002,6.323681E-002,6.323681E-002,6.323681E-002,6.323681E-002,6.323681E-002,6.323681E-002,6.323681E-002,6.323681E-002,6.323681E-002,
   **   ~~~   ** Air System Named = CENTRAL SYSTEM did not converge for energy
   **   ~~~   ** Check values should be zero. Most Recent values listed first.
   **   ~~~   ** Demand-to-Supply interface energy check value iteration history trace: 1252.983241,1252.983241,1252.983241,1252.983241,1252.983241,1252.983241,1252.983241,1252.983241,1252.983241,1252.983241,
   **   ~~~   ** Supply-to-demand interface deck 1 energy check value iteration history trace: 1842.875372,1842.875372,1842.875372,1842.875372,1842.875371,1842.875371,1842.875371,1842.875371,1842.875371,1842.875371,
   ** Warning ** SimHVAC: Maximum iterations (20) exceeded for all HVAC loops, at ANNUAL, 03/03 14:38 - 14:45
   **   ~~~   ** The solution for one or more of the Air Loop HVAC systems did not appear to converge
   **   ~~~   ** Air System Named = CENTRAL SYSTEM did not converge for mass flow rate
   **   ~~~   ** Check values should be zero. Most Recent values listed first.
   **   ~~~   ** Demand-to-Supply interface mass flow rate check value iteration history trace: 7.602892E-002,7.602892E-002,7.602892E-002,7.602892E-002,7.602892E-002,7.602892E-002,7.602892E-002,7.602892E-002,7.602892E-002,7.602892E-002,
   **   ~~~   ** Supply-to-demand interface deck 1 mass flow rate check value iteration history trace: 7.602892E-002,7.602892E-002,7.602892E-002,7.602892E-002,7.602892E-002,7.602892E-002,7.602892E-002,7.602892E-002,7.602892E-002,7.602892E-002,
   **   ~~~   ** Air System Named = CENTRAL SYSTEM did not converge for energy
   **   ~~~   ** Check values should be zero. Most Recent values listed first.
   **   ~~~   ** Demand-to-Supply interface energy check value iteration history trace: 1506.668483,1506.668483,1506.668483,1506.668483,1506.668482,1506.668482,1506.668482,1506.668482,1506.668482,1506.668482,
   **   ~~~   ** Supply-to-demand interface deck 1 energy check value iteration history trace: 2197.747286,2197.747286,2197.747286,2197.747286,2197.747286,2197.747286,2197.747285,2197.747285,2197.747285,2197.747285,
   ** Warning ** SimHVAC: Maximum iterations (20) exceeded for all HVAC loops, at ANNUAL, 03/06 23:15 - 23:22
   **   ~~~   ** The solution for one or more of the Air Loop HVAC systems did not appear to converge
   **   ~~~   ** Air System Named = CENTRAL SYSTEM did not converge for mass flow rate
   **   ~~~   ** Check values should be zero. Most Recent values listed first.
   **   ~~~   ** Demand-to-Supply interface mass flow rate check value iteration history trace: 4.619172E-002,4.619172E-002,4.619172E-002,4.619172E-002,4.619172E-002,4.619172E-002,4.619172E-002,4.619172E-002,4.619172E-002,4.619172E-002,
   **   ~~~   ** Supply-to-demand interface deck 1 mass flow rate check value iteration history trace: 4.619172E-002,4.619172E-002,4.619172E-002,4.619172E-002,4.619172E-002,4.619172E-002,4.619172E-002,4.619172E-002,4.619172E-002,4.619172E-002,
   **   ~~~   ** Air System Named = CENTRAL SYSTEM did not converge for energy
   **   ~~~   ** Check values should be zero. Most Recent values listed first.
   **   ~~~   ** Demand-to-Supply interface energy check value iteration history trace: 864.185770,864.185770,864.185770,864.185770,864.185770,864.185770,864.185770,864.185770,864.185770,864.185770,
   **   ~~~   ** Supply-to-demand interface deck 1 energy check value iteration history trace: 1605.656233,1605.656233,1605.656233,1605.656233,1605.656233,1605.656233,1605.656232,1605.656232,1605.656232,1605.656232,
   ** Warning ** SimHVAC: Maximum iterations (20) exceeded for all HVAC loops, at ANNUAL, 03/16 22:25 - 22:30
   **   ~~~   ** The solution for one or more of the Air Loop HVAC systems did not appear to converge
   **   ~~~   ** Air System Named = CENTRAL SYSTEM did not converge for mass flow rate
   **   ~~~   ** Check values should be zero. Most Recent values listed first.
   **   ~~~   ** Demand-to-Supply interface mass flow rate check value iteration history trace: 8.824745E-002,8.824745E-002,8.824745E-002,8.824745E-002,8.824745E-002,8.824745E-002,8.824745E-002,8.824745E-002,8.824745E-002,8.824745E-002,
   **   ~~~   ** Supply-to-demand interface deck 1 mass flow rate check value iteration history trace: 8.824745E-002,8.824745E-002,8.824745E-002,8.824745E-002,8.824745E-002,8.824745E-002,8.824745E-002,8.824745E-002,8.824745E-002,8.824745E-002,
   **   ~~~   ** Air System Named = CENTRAL SYSTEM did not converge for energy
   **   ~~~   ** Check values should be zero. Most Recent values listed first.
   **   ~~~   ** Demand-to-Supply interface energy check value iteration history trace: 1647.025110,1647.025110,1647.025110,1647.025109,1647.025109,1647.025109,1647.025109,1647.025109,1647.025109,1647.025109,
   **   ~~~   ** Supply-to-demand interface deck 1 energy check value iteration history trace: 2587.458312,2587.458312,2587.458312,2587.458312,2587.458312,2587.458311,2587.458311,2587.458311,2587.458311,2587.458311,
   ** Warning ** SimHVAC: Maximum iterations (20) exceeded for all HVAC loops, at ANNUAL, 03/20 11:40 - 11:45
   **   ~~~   ** The solution for one or more of the Air Loop HVAC systems did not appear to converge
   **   ~~~   ** Air System Named = CENTRAL SYSTEM did not converge for mass flow rate
   **   ~~~   ** Check values should be zero. Most Recent values listed first.
   **   ~~~   ** Demand-to-Supply interface mass flow rate check value iteration history trace: 6.980406E-002,6.980406E-002,6.980406E-002,6.980406E-002,6.980406E-002,6.980406E-002,6.980406E-002,6.980406E-002,6.980406E-002,6.980406E-002,
   **   ~~~   ** Supply-to-demand interface deck 1 mass flow rate check value iteration history trace: 6.980406E-002,6.980406E-002,6.980406E-002,6.980406E-002,6.980406E-002,6.980406E-002,6.980406E-002,6.980406E-002,6.980406E-002,6.980406E-002,
   **   ~~~   ** Air System Named = CENTRAL SYSTEM did not converge for energy
   **   ~~~   ** Check values should be zero. Most Recent values listed first.
   **   ~~~   ** Demand-to-Supply interface energy check value iteration history trace: 1383.315973,1383.315973,1383.315973,1383.315973,1383.315973,1383.315972,1383.315972,1383.315972,1383.315972,1383.315972,
   **   ~~~   ** Supply-to-demand interface deck 1 energy check value iteration history trace: 2361.148472,2361.148472,2361.148472,2361.148472,2361.148472,2361.148472,2361.148472,2361.148472,2361.148471,2361.148471,
   ** Warning ** SimHVAC: Maximum iterations (20) exceeded for all HVAC loops, at ANNUAL, 03/20 23:15 - 23:30
   **   ~~~   ** The solution for one or more of the Air Loop HVAC systems did not appear to converge
   **   ~~~   ** Air System Named = CENTRAL SYSTEM did not converge for mass flow rate
   **   ~~~   ** Check values should be zero. Most Recent values listed first.
   **   ~~~   ** Demand-to-Supply interface mass flow rate check value iteration history trace: 8.509662E-002,8.509662E-002,8.509662E-002,8.509662E-002,8.509662E-002,8.509662E-002,8.509662E-002,8.509662E-002,8.509662E-002,8.509662E-002,
   **   ~~~   ** Supply-to-demand interface deck 1 mass flow rate check value iteration history trace: 8.509662E-002,8.509662E-002,8.509662E-002,8.509662E-002,8.509662E-002,8.509662E-002,8.509662E-002,8.509662E-002,8.509662E-002,8.509662E-002,
   **   ~~~   ** Air System Named = CENTRAL SYSTEM did not converge for energy
   **   ~~~   ** Check values should be zero. Most Recent values listed first.
   **   ~~~   ** Demand-to-Supply interface energy check value iteration history trace: 1588.881815,1588.881815,1588.881815,1588.881815,1588.881815,1588.881815,1588.881815,1588.881815,1588.881814,1588.881814,
   **   ~~~   ** Supply-to-demand interface deck 1 energy check value iteration history trace: 2481.135704,2481.135703,2481.135703,2481.135703,2481.135703,2481.135703,2481.135703,2481.135702,2481.135702,2481.135702,
   ** Warning ** SimHVAC: Maximum iterations (20) exceeded for all HVAC loops, at ANNUAL, 03/31 09:41 - 09:45
   **   ~~~   ** The solution for one or more of the Air Loop HVAC systems did not appear to converge
   **   ~~~   ** Air System Named = CENTRAL SYSTEM did not converge for mass flow rate
   **   ~~~   ** Check values should be zero. Most Recent values listed first.
   **   ~~~   ** Demand-to-Supply interface mass flow rate check value iteration history trace: 7.939880E-002,7.939880E-002,7.939880E-002,7.939880E-002,7.939880E-002,7.939880E-002,7.939880E-002,7.939880E-002,7.939880E-002,7.939880E-002,
   **   ~~~   ** Supply-to-demand interface deck 1 mass flow rate check value iteration history trace: 7.939880E-002,7.939880E-002,7.939880E-002,7.939880E-002,7.939880E-002,7.939880E-002,7.939880E-002,7.939880E-002,7.939880E-002,7.939880E-002,
   **   ~~~   ** Air System Named = CENTRAL SYSTEM did not converge for energy
   **   ~~~   ** Check values should be zero. Most Recent values listed first.
   **   ~~~   ** Demand-to-Supply interface energy check value iteration history trace: 1569.567405,1569.567405,1569.567405,1569.567405,1569.567405,1569.567404,1569.567404,1569.567404,1569.567404,1569.567404,
   **   ~~~   ** Supply-to-demand interface deck 1 energy check value iteration history trace: 2718.450238,2718.450238,2718.450238,2718.450238,2718.450238,2718.450238,2718.450238,2718.450237,2718.450237,2718.450237,
   ** Warning ** SimHVAC: Maximum iterations (20) exceeded for all HVAC loops, at ANNUAL, 04/05 17:45 - 18:00
   **   ~~~   ** The solution for one or more of the Air Loop HVAC systems did not appear to converge
   **   ~~~   ** Air System Named = CENTRAL SYSTEM did not converge for mass flow rate
   **   ~~~   ** Check values should be zero. Most Recent values listed first.
   **   ~~~   ** Demand-to-Supply interface mass flow rate check value iteration history trace: 8.868559E-002,8.868559E-002,8.868559E-002,8.868559E-002,8.868559E-002,8.868559E-002,8.868559E-002,8.868559E-002,8.868559E-002,8.868559E-002,
   **   ~~~   ** Supply-to-demand interface deck 1 mass flow rate check value iteration history trace: 8.868559E-002,8.868559E-002,8.868559E-002,8.868559E-002,8.868559E-002,8.868559E-002,8.868559E-002,8.868559E-002,8.868559E-002,8.868559E-002,
   **   ~~~   ** Air System Named = CENTRAL SYSTEM did not converge for energy
   **   ~~~   ** Check values should be zero. Most Recent values listed first.
   **   ~~~   ** Demand-to-Supply interface energy check value iteration history trace: 1754.462214,1754.462214,1754.462214,1754.462214,1754.462214,1754.462214,1754.462214,1754.462214,1754.462213,1754.462213,
   **   ~~~   ** Supply-to-demand interface deck 1 energy check value iteration history trace: 2644.514320,2644.514320,2644.514320,2644.514320,2644.514320,2644.514319,2644.514319,2644.514319,2644.514319,2644.514319,
   ** Warning ** SimHVAC: Maximum iterations (20) exceeded for all HVAC loops, at ANNUAL, 04/09 11:15 - 11:22
   **   ~~~   ** The solution for one or more of the Air Loop HVAC systems did not appear to converge
   **   ~~~   ** Air System Named = CENTRAL SYSTEM did not converge for mass flow rate
   **   ~~~   ** Check values should be zero. Most Recent values listed first.
   **   ~~~   ** Demand-to-Supply interface mass flow rate check value iteration history trace: 7.779992E-002,7.779992E-002,7.779992E-002,7.779992E-002,7.779992E-002,7.779992E-002,7.779992E-002,7.779992E-002,7.779992E-002,7.779992E-002,
   **   ~~~   ** Supply-to-demand interface deck 1 mass flow rate check value iteration history trace: 7.779992E-002,7.779992E-002,7.779992E-002,7.779992E-002,7.779992E-002,7.779992E-002,7.779992E-002,7.779992E-002,7.779992E-002,7.779992E-002,
   **   ~~~   ** Air System Named = CENTRAL SYSTEM did not converge for energy
   **   ~~~   ** Check values should be zero. Most Recent values listed first.
   **   ~~~   ** Demand-to-Supply interface energy check value iteration history trace: 1541.668155,1541.668155,1541.668155,1541.668155,1541.668155,1541.668155,1541.668155,1541.668154,1541.668154,1541.668154,
   **   ~~~   ** Supply-to-demand interface deck 1 energy check value iteration history trace: 2621.997268,2621.997268,2621.997268,2621.997268,2621.997268,2621.997268,2621.997268,2621.997267,2621.997267,2621.997267,
   ** Warning ** SimHVAC: Maximum iterations (20) exceeded for all HVAC loops, at ANNUAL, 04/13 12:08 - 12:15
   **   ~~~   ** The solution for one or more of the Air Loop HVAC systems did not appear to converge
   **   ~~~   ** Air System Named = CENTRAL SYSTEM did not converge for mass flow rate
   **   ~~~   ** Check values should be zero. Most Recent values listed first.
   **   ~~~   ** Demand-to-Supply interface mass flow rate check value iteration history trace: 6.256458E-002,6.256458E-002,6.256458E-002,6.256458E-002,6.256458E-002,6.256458E-002,6.256458E-002,6.256458E-002,6.256458E-002,6.256458E-002,
   **   ~~~   ** Supply-to-demand interface deck 1 mass flow rate check value iteration history trace: 6.256458E-002,6.256458E-002,6.256458E-002,6.256458E-002,6.256458E-002,6.256458E-002,6.256458E-002,6.256458E-002,6.256458E-002,6.256458E-002,
   **   ~~~   ** Air System Named = CENTRAL SYSTEM did not converge for energy
   **   ~~~   ** Check values should be zero. Most Recent values listed first.
   **   ~~~   ** Demand-to-Supply interface energy check value iteration history trace: 1234.973103,1234.973103,1234.973103,1234.973102,1234.973102,1234.973102,1234.973102,1234.973102,1234.973102,1234.973102,
   **   ~~~   ** Supply-to-demand interface deck 1 energy check value iteration history trace: 2217.536475,2217.536475,2217.536475,2217.536475,2217.536475,2217.536475,2217.536475,2217.536475,2217.536475,2217.536475,
   ** Warning ** SimHVAC: Maximum iterations (20) exceeded for all HVAC loops, at ANNUAL, 04/30 10:15 - 10:30
   **   ~~~   ** The solution for one or more of the Air Loop HVAC systems did not appear to converge
   **   ~~~   ** Air System Named = CENTRAL SYSTEM did not converge for mass flow rate
   **   ~~~   ** Check values should be zero. Most Recent values listed first.
   **   ~~~   ** Demand-to-Supply interface mass flow rate check value iteration history trace: 5.980173E-002,5.980173E-002,5.980173E-002,5.980173E-002,5.980173E-002,5.980173E-002,5.980173E-002,5.980173E-002,5.980173E-002,5.980173E-002,
   **   ~~~   ** Supply-to-demand interface deck 1 mass flow rate check value iteration history trace: 5.980173E-002,5.980173E-002,5.980173E-002,5.980173E-002,5.980173E-002,5.980173E-002,5.980173E-002,5.980173E-002,5.980173E-002,5.980173E-002,
   **   ~~~   ** Air System Named = CENTRAL SYSTEM did not converge for energy
   **   ~~~   ** Check values should be zero. Most Recent values listed first.
   **   ~~~   ** Demand-to-Supply interface energy check value iteration history trace: 1183.991739,1183.991739,1183.991739,1183.991739,1183.991739,1183.991739,1183.991739,1183.991739,1183.991739,1183.991738,
   **   ~~~   ** Supply-to-demand interface deck 1 energy check value iteration history trace: 2135.388877,2135.388877,2135.388877,2135.388877,2135.388877,2135.388877,2135.388877,2135.388877,2135.388876,2135.388876,
   ** Warning ** SimHVAC: Maximum iterations (20) exceeded for all HVAC loops, at ANNUAL, 04/30 12:45 - 12:52
   **   ~~~   ** The solution for one or more of the Air Loop HVAC systems did not appear to converge
   **   ~~~   ** Air System Named = CENTRAL SYSTEM did not converge for mass flow rate
   **   ~~~   ** Check values should be zero. Most Recent values listed first.
   **   ~~~   ** Demand-to-Supply interface mass flow rate check value iteration history trace: 4.685805E-002,4.685805E-002,4.685805E-002,4.685805E-002,4.685805E-002,4.685805E-002,4.685805E-002,4.685805E-002,4.685805E-002,4.685805E-002,
   **   ~~~   ** Supply-to-demand interface deck 1 mass flow rate check value iteration history trace: 4.685805E-002,4.685805E-002,4.685805E-002,4.685805E-002,4.685805E-002,4.685805E-002,4.685805E-002,4.685805E-002,4.685805E-002,4.685805E-002,
   **   ~~~   ** Air System Named = CENTRAL SYSTEM did not converge for energy
   **   ~~~   ** Check values should be zero. Most Recent values listed first.
   **   ~~~   ** Demand-to-Supply interface energy check value iteration history trace: 921.946088,921.946088,921.946088,921.946088,921.946088,921.946088,921.946088,921.946088,921.946088,921.946088,
   **   ~~~   ** Supply-to-demand interface deck 1 energy check value iteration history trace: 1712.253018,1712.253018,1712.253018,1712.253018,1712.253018,1712.253018,1712.253018,1712.253018,1712.253018,1712.253018,
   ** Warning ** SimHVAC: Maximum iterations (20) exceeded for all HVAC loops, at ANNUAL, 05/01 08:03 - 08:06
   **   ~~~   ** The solution for one or more of the Air Loop HVAC systems did not appear to converge
   **   ~~~   ** Air System Named = CENTRAL SYSTEM did not converge for mass flow rate
   **   ~~~   ** Check values should be zero. Most Recent values listed first.
   **   ~~~   ** Demand-to-Supply interface mass flow rate check value iteration history trace: 5.565279E-002,5.565279E-002,5.565279E-002,5.565279E-002,5.565279E-002,5.565279E-002,5.565279E-002,5.565279E-002,5.565279E-002,5.565279E-002,
   **   ~~~   ** Supply-to-demand interface deck 1 mass flow rate check value iteration history trace: 5.565279E-002,5.565279E-002,5.565279E-002,5.565279E-002,5.565279E-002,5.565279E-002,5.565279E-002,5.565279E-002,5.565279E-002,5.565279E-002,
   **   ~~~   ** Air System Named = CENTRAL SYSTEM did not converge for energy
   **   ~~~   ** Check values should be zero. Most Recent values listed first.
   **   ~~~   ** Demand-to-Supply interface energy check value iteration history trace: 1098.801612,1098.801612,1098.801612,1098.801612,1098.801612,1098.801612,1098.801612,1098.801612,1098.801612,1098.801612,
   **   ~~~   ** Supply-to-demand interface deck 1 energy check value iteration history trace: 2008.150972,2008.150972,2008.150972,2008.150972,2008.150972,2008.150972,2008.150972,2008.150972,2008.150972,2008.150972,
   ** Warning ** SimHVAC: Maximum iterations (20) exceeded for all HVAC loops, at ANNUAL, 05/10 06:30 - 06:34
   **   ~~~   ** The solution for one or more of the Air Loop HVAC systems did not appear to converge
   **   ~~~   ** Air System Named = CENTRAL SYSTEM did not converge for mass flow rate
   **   ~~~   ** Check values should be zero. Most Recent values listed first.
   **   ~~~   ** Demand-to-Supply interface mass flow rate check value iteration history trace: 6.027447E-002,6.027447E-002,6.027447E-002,6.027447E-002,6.027447E-002,6.027447E-002,6.027447E-002,6.027447E-002,6.027447E-002,6.027447E-002,
   **   ~~~   ** Supply-to-demand interface deck 1 mass flow rate check value iteration history trace: 6.027447E-002,6.027447E-002,6.027447E-002,6.027447E-002,6.027447E-002,6.027447E-002,6.027447E-002,6.027447E-002,6.027447E-002,6.027447E-002,
   **   ~~~   ** Air System Named = CENTRAL SYSTEM did not converge for energy
   **   ~~~   ** Check values should be zero. Most Recent values listed first.
   **   ~~~   ** Demand-to-Supply interface energy check value iteration history trace: 1194.373902,1194.373901,1194.373901,1194.373901,1194.373901,1194.373901,1194.373901,1194.373901,1194.373901,1194.373901,
   **   ~~~   ** Supply-to-demand interface deck 1 energy check value iteration history trace: 2020.820842,2020.820842,2020.820842,2020.820842,2020.820842,2020.820842,2020.820841,2020.820841,2020.820841,2020.820841,
   ************* Simulation Error Summary *************
   ** Warning ** The following Report Variables were requested but not generated -- check.rdd file
   **   ~~~   ** Either the IDF did not contain these elements, the variable name is misspelled,
   **   ~~~   ** or the requested variable is an advanced output which requires Output : Diagnostics, DisplayAdvancedReportVariables;
   ************* Key=*, VarName=BASEBOARD TOTAL HEATING ENERGY, Frequency=
   ************* Key=*, VarName=WATER HEATER NATURALGAS ENERGY, Frequency=
   ************* Key=*, VarName=COOLING COIL TOTAL HEATING ENERGY, Frequency=
   ************* There are 34 unused schedules in input.
   ************* There are 388 unused week schedules in input.
   ************* There are 396 unused day schedules in input.
   ************* Use Output:Diagnostics,DisplayUnusedSchedules; to see them.
   *************
   ************* ===== Recurring Error Summary =====
   ************* The following recurring error messages occurred.
   *************
   *************  ** Warning ** "TOTAL HOT WATER LOAD" - Target water temperature should be less than or equal to the hot water temperature error continues...
   *************  **   ~~~   **   This error occurred 146785 total times;
   *************  **   ~~~   **   during Warmup 0 times;
   *************  **   ~~~   **   during Sizing 0 times.
   *************  **   ~~~   **   Max=17.98591  Min=9.297258E-004
   *************
   *************  ** Warning ** SimHVAC: Exceeding Maximum iterations for all HVAC loops, during ANNUAL continues
   *************  **   ~~~   **   This error occurred 17 total times;
   *************  **   ~~~   **   during Warmup 0 times;
   *************  **   ~~~   **   during Sizing 0 times.
   *************
   *************
   ************* ===== Final Error Summary =====
   ************* The following error categories occurred.  Consider correcting or noting.
   ************* Nominally Unused Constructions
   ************* ..The nominally unused constructions warning is provided to alert you to potential conditions that can cause
   ************* ..extra time during simulation. Each construction is calculated by the algorithm indicated in the HeatBalanceAlgorithm
   ************* ..object. You may remove the constructions indicated (when you use the DisplayExtraWarnings option).
   *************
   ************* EnergyPlus Warmup Error Summary. During Warmup: 1 Warning; 0 Severe Errors.
   ************* EnergyPlus Sizing Error Summary. During Sizing: 4 Warning; 0 Severe Errors.
   ************* EnergyPlus Completed Successfully-- 146834 Warning; 0 Severe Errors; Elapsed Time=00hr 01min 35.83sec
