Program Version,EnergyPlus, Version 22.2.0-c249759bad, YMD=2023.09.01 20:04,
   ************* Beginning Zone Sizing Calculations
   ** Warning ** ProcessScheduleInput: Schedule:Constant="ALWAYS ON DISCRETE", Schedule Type Limits Name="ONOFF" not found -- will not be validated
   ** Warning ** Foundation:Kiva="KIVA FOUNDATION", no Interior Horizontal Insulation Material Name defined
   **   ~~~   ** Interior Horizontal Insulation Depth will not be used.
   ** Warning ** CheckUsedConstructions: There are 15 nominally unused constructions in input.
   **   ~~~   ** Each Unused construction is shown.
   ************* Construction=INTERIOR FLOOR
   ************* Construction=INTERIOR WINDOW
   ************* Construction=EXTERIOR DOOR
   ************* Construction=INTERIOR DOOR
   ************* Construction=GABLE CONSTRUCTION
   ************* Construction=CRAWL_FLOOR
   ************* Construction=INSULATED PIPE
   ************* Construction=PLAIN PIPE
   ************* Construction=TDD PIPE
   ************* Construction=TDD DOME
   ************* Construction=TDD DIFFUSER
   ************* Construction=CRAWL WALL
   ************* Construction=CEILING-FLOOR-LAYER
   ************* Construction=SLAB CONSTRUCTION W FULL R10 INSULATION
   ************* Construction=SLAB CONSTRUCTION W FULL R5 INSULATION
   ** Warning ** GetDXCoils: Coil:Heating:DX:SingleSpeed="DX_HEATING_COIL" curve values
   **   ~~~   ** ... Defrost Energy Input Ratio Function of Temperature Curve Name = DEFROSTEIR output is not equal to 1.0 (+ or - 10%) at rated conditions.
   **   ~~~   ** ... Curve output at rated conditions = 0.152
   ************* Beginning System Sizing Calculations
   ************* Beginning Plant Sizing Calculations
   ** Warning ** SizeDXCoil Coil:Cooling:DX:SingleSpeed DX_COOLING_COIL
   **   ~~~   ** ...Gross Rated Total Cooling Capacity [W] will be limited by the maximum rated volume flow per rated total capacity ratio.
   **   ~~~   ** ...DX coil volume flow rate ( m3/s ) = 0.402909
   **   ~~~   ** ...Requested capacity ( W ) = 6221.942
   **   ~~~   ** ...Requested flow/capacity ratio ( m3/s/W ) = 6.475E-005
   **   ~~~   ** ...Maximum flow/capacity ratio ( m3/s/W ) = 6.041E-005
   **   ~~~   ** ...Adjusted capacity ( W ) = 6669.575
   ** Warning ** Coil:WaterHeating:AirToWaterHeatPump:Wrapped "HEAT PUMP WATER HEATER EVAPORATOR": Rated air volume flow rate per watt of rated total water heating capacity is out of range
   **   ~~~   ** Min Rated Vol Flow Per Watt=[4.027E-005], Rated Vol Flow Per Watt=[1.510E-004], Max Rated Vol Flow Per Watt=[8.056E-005]. See Input-Output Reference Manual for valid range.
   ************* SizeFan: : Potential issue with equipment sizing for Fan:OnOff HEAT PUMP WATER HEATER FAN
   **   ~~~   ** User-Specified Maximum Flow Rate [m3/s] = 0.22653
   **   ~~~   ** differs from Design Size Maximum Flow Rate [m3/s] = 7.55250E-002
   **   ~~~   ** This may, or may not, indicate mismatched component sizes.
   **   ~~~   ** Verify that the value entered is intended and is consistent with other components.
   ** Warning ** Water heater = WATER HEATER TANK:  Recovery Efficiency and Energy Factor could not be calculated during the test for standard ratings
   **   ~~~   ** Setpoint was never recovered and/or heater never turned on
   ** Warning ** Check input. Pump nominal power or motor efficiency is set to 0, for pump=MAINS PRESSURE
   ** Warning ** Output:Meter: invalid Key Name="ELECTRIC_RANGE:INTERIOREQUIPMENT:ELECTRICITY" - not found.
   ** Warning ** Output:Meter: invalid Key Name="ELECTRIC_DRYER:INTERIOREQUIPMENT:ELECTRICITY" - not found.
   ** Warning ** Output:Meter: invalid Key Name="HEATRECOVERY:ELECTRICITY" - not found.
   ** Warning ** Output:Meter: invalid Key Name="HEATING:NATURALGAS" - not found.
   ** Warning ** Output:Meter: invalid Key Name="WATERSYSTEMS:NATURALGAS" - not found.
   ** Warning ** Output:Meter: invalid Key Name="PROPANE:FACILITY" - not found.
   ** Warning ** Output:Meter: invalid Key Name="HEATING:PROPANE" - not found.
   ************* Testing Individual Branch Integrity
   ************* All Branches passed integrity testing
   ************* Testing Individual Supply Air Path Integrity
   ************* All Supply Air Paths passed integrity testing
   ************* Testing Individual Return Air Path Integrity
   ************* All Return Air Paths passed integrity testing
   ************* No node connection errors were found.
   ************* Beginning Simulation
   ** Warning ** AirflowNetwork::Solver::validate_distribution: Heat pump water heater is simulated along with an AirflowNetwork but is not included in the AirflowNetwork.
   ** Warning ** CalcEquipmentFlowRates: "TOTAL HOT WATER LOAD" - Target water temperature is greater than the hot water temperature by (3.22 C)
   **   ~~~   **  Environment=EXTREME_WINTER, at Simulation time=12/15 07:00 - 07:15
   **   ~~~   ** ...target water temperature     = 53.33 C
   **   ~~~   ** ...hot water temperature        = 50.12 C
   **   ~~~   ** ...Target water temperature should be less than or equal to the hot water temperature. Verify temperature setpoints and schedules.
   ** Warning ** SimHVAC: Maximum iterations (20) exceeded for all HVAC loops, at ANNUAL, 01/03 13:00 - 13:15
   **   ~~~   ** The solution for one or more of the Air Loop HVAC systems did not appear to converge
   **   ~~~   ** Air System Named = CENTRAL SYSTEM did not converge for mass flow rate
   **   ~~~   ** Check values should be zero. Most Recent values listed first.
   **   ~~~   ** Demand-to-Supply interface mass flow rate check value iteration history trace: 7.319791E-002,7.319791E-002,7.319791E-002,7.319791E-002,7.319791E-002,7.319791E-002,7.319791E-002,7.319791E-002,7.319791E-002,7.319791E-002,
   **   ~~~   ** Supply-to-demand interface deck 1 mass flow rate check value iteration history trace: 7.319791E-002,7.319791E-002,7.319791E-002,7.319791E-002,7.319791E-002,7.319791E-002,7.319791E-002,7.319791E-002,7.319791E-002,7.319791E-002,
   **   ~~~   ** Air System Named = CENTRAL SYSTEM did not converge for energy
   **   ~~~   ** Check values should be zero. Most Recent values listed first.
   **   ~~~   ** Demand-to-Supply interface energy check value iteration history trace: 1450.286384,1450.286384,1450.286384,1450.286384,1450.286384,1450.286384,1450.286384,1450.286384,1450.286384,1450.286384,
   **   ~~~   ** Supply-to-demand interface deck 1 energy check value iteration history trace: 2445.473788,2445.473788,2445.473788,2445.473788,2445.473788,2445.473788,2445.473788,2445.473787,2445.473787,2445.473787,
   ** Warning ** SimHVAC: Maximum iterations (20) exceeded for all HVAC loops, at ANNUAL, 01/04 13:00 - 13:08
   **   ~~~   ** The solution for one or more of the Air Loop HVAC systems did not appear to converge
   **   ~~~   ** Air System Named = CENTRAL SYSTEM did not converge for mass flow rate
   **   ~~~   ** Check values should be zero. Most Recent values listed first.
   **   ~~~   ** Demand-to-Supply interface mass flow rate check value iteration history trace: 6.113173E-002,6.113173E-002,6.113173E-002,6.113173E-002,6.113173E-002,6.113173E-002,6.113173E-002,6.113173E-002,6.113173E-002,6.113173E-002,
   **   ~~~   ** Supply-to-demand interface deck 1 mass flow rate check value iteration history trace: 6.113173E-002,6.113173E-002,6.113173E-002,6.113173E-002,6.113173E-002,6.113173E-002,6.113173E-002,6.113173E-002,6.113173E-002,6.113173E-002,
   **   ~~~   ** Air System Named = CENTRAL SYSTEM did not converge for energy
   **   ~~~   ** Check values should be zero. Most Recent values listed first.
   **   ~~~   ** Demand-to-Supply interface energy check value iteration history trace: 1211.317298,1211.317298,1211.317298,1211.317298,1211.317298,1211.317298,1211.317298,1211.317298,1211.317298,1211.317297,
   **   ~~~   ** Supply-to-demand interface deck 1 energy check value iteration history trace: 2081.824195,2081.824195,2081.824195,2081.824195,2081.824195,2081.824195,2081.824195,2081.824195,2081.824195,2081.824194,
   ** Warning ** SimHVAC: Maximum iterations (20) exceeded for all HVAC loops, at ANNUAL, 02/01 13:30 - 13:45
   **   ~~~   ** The solution for one or more of the Air Loop HVAC systems did not appear to converge
   **   ~~~   ** Air System Named = CENTRAL SYSTEM did not converge for mass flow rate
   **   ~~~   ** Check values should be zero. Most Recent values listed first.
   **   ~~~   ** Demand-to-Supply interface mass flow rate check value iteration history trace: 7.146588E-002,7.146588E-002,7.146588E-002,7.146588E-002,7.146588E-002,7.146588E-002,7.146588E-002,7.146588E-002,7.146588E-002,7.146588E-002,
   **   ~~~   ** Supply-to-demand interface deck 1 mass flow rate check value iteration history trace: 7.146588E-002,7.146588E-002,7.146588E-002,7.146588E-002,7.146588E-002,7.146588E-002,7.146588E-002,7.146588E-002,7.146588E-002,7.146588E-002,
   **   ~~~   ** Air System Named = CENTRAL SYSTEM did not converge for energy
   **   ~~~   ** Check values should be zero. Most Recent values listed first.
   **   ~~~   ** Demand-to-Supply interface energy check value iteration history trace: 1415.669347,1415.669347,1415.669347,1415.669347,1415.669347,1415.669346,1415.669346,1415.669346,1415.669346,1415.669346,
   **   ~~~   ** Supply-to-demand interface deck 1 energy check value iteration history trace: 2190.278352,2190.278352,2190.278352,2190.278352,2190.278352,2190.278352,2190.278352,2190.278351,2190.278351,2190.278351,
   ** Warning ** SimHVAC: Maximum iterations (20) exceeded for all HVAC loops, at ANNUAL, 03/05 19:55 - 20:00
   **   ~~~   ** The solution for one or more of the Air Loop HVAC systems did not appear to converge
   **   ~~~   ** Air System Named = CENTRAL SYSTEM did not converge for mass flow rate
   **   ~~~   ** Check values should be zero. Most Recent values listed first.
   **   ~~~   ** Demand-to-Supply interface mass flow rate check value iteration history trace: 0.105703,0.105703,0.105703,0.105703,0.105703,0.105703,0.105703,0.105703,0.105703,0.105703,
   **   ~~~   ** Supply-to-demand interface deck 1 mass flow rate check value iteration history trace: 0.105703,0.105703,0.105703,0.105703,0.105703,0.105703,0.105703,0.105703,0.105703,0.105703,
   **   ~~~   ** Air System Named = CENTRAL SYSTEM did not converge for energy
   **   ~~~   ** Check values should be zero. Most Recent values listed first.
   **   ~~~   ** Demand-to-Supply interface energy check value iteration history trace: 2091.425970,2091.425970,2091.425970,2091.425970,2091.425970,2091.425970,2091.425970,2091.425970,2091.425970,2091.425970,
   **   ~~~   ** Supply-to-demand interface deck 1 energy check value iteration history trace: 3201.854970,3201.854970,3201.854970,3201.854970,3201.854970,3201.854970,3201.854969,3201.854969,3201.854969,3201.854969,
   ** Warning ** SimHVAC: Maximum iterations (20) exceeded for all HVAC loops, at ANNUAL, 03/09 10:47 - 10:49
   **   ~~~   ** The solution for one or more of the Air Loop HVAC systems did not appear to converge
   **   ~~~   ** Air System Named = CENTRAL SYSTEM did not converge for mass flow rate
   **   ~~~   ** Check values should be zero. Most Recent values listed first.
   **   ~~~   ** Demand-to-Supply interface mass flow rate check value iteration history trace: 0.105660,0.105660,0.105660,0.105660,0.105660,0.105660,0.105660,0.105660,0.105660,0.105660,
   **   ~~~   ** Supply-to-demand interface deck 1 mass flow rate check value iteration history trace: 0.105660,0.105660,0.105660,0.105660,0.105660,0.105660,0.105660,0.105660,0.105660,0.105660,
   **   ~~~   ** Air System Named = CENTRAL SYSTEM did not converge for energy
   **   ~~~   ** Check values should be zero. Most Recent values listed first.
   **   ~~~   ** Demand-to-Supply interface energy check value iteration history trace: 2093.933410,2093.933410,2093.933410,2093.933410,2093.933409,2093.933409,2093.933409,2093.933409,2093.933409,2093.933409,
   **   ~~~   ** Supply-to-demand interface deck 1 energy check value iteration history trace: 3225.508348,3225.508348,3225.508348,3225.508348,3225.508348,3225.508347,3225.508347,3225.508347,3225.508347,3225.508347,
   ** Warning ** SimHVAC: Maximum iterations (20) exceeded for all HVAC loops, at ANNUAL, 03/09 11:30 - 11:34
   **   ~~~   ** The solution for one or more of the Air Loop HVAC systems did not appear to converge
   **   ~~~   ** Air System Named = CENTRAL SYSTEM did not converge for mass flow rate
   **   ~~~   ** Check values should be zero. Most Recent values listed first.
   **   ~~~   ** Demand-to-Supply interface mass flow rate check value iteration history trace: 9.785779E-002,9.785779E-002,9.785779E-002,9.785779E-002,9.785779E-002,9.785779E-002,9.785779E-002,9.785779E-002,9.785779E-002,9.785779E-002,
   **   ~~~   ** Supply-to-demand interface deck 1 mass flow rate check value iteration history trace: 9.785779E-002,9.785779E-002,9.785779E-002,9.785779E-002,9.785779E-002,9.785779E-002,9.785779E-002,9.785779E-002,9.785779E-002,9.785779E-002,
   **   ~~~   ** Air System Named = CENTRAL SYSTEM did not converge for energy
   **   ~~~   ** Check values should be zero. Most Recent values listed first.
   **   ~~~   ** Demand-to-Supply interface energy check value iteration history trace: 1934.232209,1934.232209,1934.232209,1934.232208,1934.232208,1934.232208,1934.232208,1934.232208,1934.232208,1934.232208,
   **   ~~~   ** Supply-to-demand interface deck 1 energy check value iteration history trace: 2982.549511,2982.549511,2982.549511,2982.549511,2982.549510,2982.549510,2982.549510,2982.549510,2982.549510,2982.549509,
   ** Warning ** SimHVAC: Maximum iterations (20) exceeded for all HVAC loops, at ANNUAL, 03/13 16:05 - 16:10
   **   ~~~   ** The solution for one or more of the Air Loop HVAC systems did not appear to converge
   **   ~~~   ** Air System Named = CENTRAL SYSTEM did not converge for mass flow rate
   **   ~~~   ** Check values should be zero. Most Recent values listed first.
   **   ~~~   ** Demand-to-Supply interface mass flow rate check value iteration history trace: 0.101427,0.101427,0.101427,0.101427,0.101427,0.101427,0.101427,0.101427,0.101427,0.101427,
   **   ~~~   ** Supply-to-demand interface deck 1 mass flow rate check value iteration history trace: 0.101427,0.101427,0.101427,0.101427,0.101427,0.101427,0.101427,0.101427,0.101427,0.101427,
   **   ~~~   ** Air System Named = CENTRAL SYSTEM did not converge for energy
   **   ~~~   ** Check values should be zero. Most Recent values listed first.
   **   ~~~   ** Demand-to-Supply interface energy check value iteration history trace: 1993.129631,1993.129631,1993.129630,1993.129630,1993.129630,1993.129630,1993.129630,1993.129630,1993.129630,1993.129629,
   **   ~~~   ** Supply-to-demand interface deck 1 energy check value iteration history trace: 3051.711678,3051.711677,3051.711677,3051.711677,3051.711677,3051.711677,3051.711676,3051.711676,3051.711676,3051.711676,
   ** Warning ** SimHVAC: Maximum iterations (20) exceeded for all HVAC loops, at ANNUAL, 03/15 10:04 - 10:06
   **   ~~~   ** The solution for one or more of the Air Loop HVAC systems did not appear to converge
   **   ~~~   ** Air System Named = CENTRAL SYSTEM did not converge for mass flow rate
   **   ~~~   ** Check values should be zero. Most Recent values listed first.
   **   ~~~   ** Demand-to-Supply interface mass flow rate check value iteration history trace: 8.530862E-002,8.530862E-002,8.530862E-002,8.530862E-002,8.530862E-002,8.530862E-002,8.530862E-002,8.530862E-002,8.530862E-002,8.530862E-002,
   **   ~~~   ** Supply-to-demand interface deck 1 mass flow rate check value iteration history trace: 8.530862E-002,8.530862E-002,8.530862E-002,8.530862E-002,8.530862E-002,8.530862E-002,8.530862E-002,8.530862E-002,8.530862E-002,8.530862E-002,
   **   ~~~   ** Air System Named = CENTRAL SYSTEM did not converge for energy
   **   ~~~   ** Check values should be zero. Most Recent values listed first.
   **   ~~~   ** Demand-to-Supply interface energy check value iteration history trace: 1690.602624,1690.602624,1690.602624,1690.602624,1690.602624,1690.602624,1690.602624,1690.602624,1690.602624,1690.602624,
   **   ~~~   ** Supply-to-demand interface deck 1 energy check value iteration history trace: 2855.414594,2855.414594,2855.414593,2855.414593,2855.414593,2855.414593,2855.414593,2855.414593,2855.414593,2855.414593,
   ** Warning ** SimHVAC: Maximum iterations (20) exceeded for all HVAC loops, at ANNUAL, 03/15 10:45 - 10:47
   **   ~~~   ** The solution for one or more of the Air Loop HVAC systems did not appear to converge
   **   ~~~   ** Air System Named = CENTRAL SYSTEM did not converge for mass flow rate
   **   ~~~   ** Check values should be zero. Most Recent values listed first.
   **   ~~~   ** Demand-to-Supply interface mass flow rate check value iteration history trace: 7.773667E-002,7.773667E-002,7.773667E-002,7.773667E-002,7.773667E-002,7.773667E-002,7.773667E-002,7.773667E-002,7.773667E-002,7.773667E-002,
   **   ~~~   ** Supply-to-demand interface deck 1 mass flow rate check value iteration history trace: 7.773667E-002,7.773667E-002,7.773667E-002,7.773667E-002,7.773667E-002,7.773667E-002,7.773667E-002,7.773667E-002,7.773667E-002,7.773667E-002,
   **   ~~~   ** Air System Named = CENTRAL SYSTEM did not converge for energy
   **   ~~~   ** Check values should be zero. Most Recent values listed first.
   **   ~~~   ** Demand-to-Supply interface energy check value iteration history trace: 1537.875255,1537.875255,1537.875254,1537.875254,1537.875254,1537.875254,1537.875254,1537.875254,1537.875254,1537.875254,
   **   ~~~   ** Supply-to-demand interface deck 1 energy check value iteration history trace: 2643.385092,2643.385091,2643.385091,2643.385091,2643.385091,2643.385091,2643.385091,2643.385091,2643.385091,2643.385091,
   ** Warning ** SimHVAC: Maximum iterations (20) exceeded for all HVAC loops, at ANNUAL, 03/21 13:36 - 13:39
   **   ~~~   ** The solution for one or more of the Air Loop HVAC systems did not appear to converge
   **   ~~~   ** Air System Named = CENTRAL SYSTEM did not converge for mass flow rate
   **   ~~~   ** Check values should be zero. Most Recent values listed first.
   **   ~~~   ** Demand-to-Supply interface mass flow rate check value iteration history trace: 7.092903E-002,7.092903E-002,7.092903E-002,7.092903E-002,7.092903E-002,7.092903E-002,7.092903E-002,7.092903E-002,7.092903E-002,7.092903E-002,
   **   ~~~   ** Supply-to-demand interface deck 1 mass flow rate check value iteration history trace: 7.092903E-002,7.092903E-002,7.092903E-002,7.092903E-002,7.092903E-002,7.092903E-002,7.092903E-002,7.092903E-002,7.092903E-002,7.092903E-002,
   **   ~~~   ** Air System Named = CENTRAL SYSTEM did not converge for energy
   **   ~~~   ** Check values should be zero. Most Recent values listed first.
   **   ~~~   ** Demand-to-Supply interface energy check value iteration history trace: 1403.390379,1403.390379,1403.390379,1403.390379,1403.390379,1403.390378,1403.390378,1403.390378,1403.390378,1403.390378,
   **   ~~~   ** Supply-to-demand interface deck 1 energy check value iteration history trace: 2360.666952,2360.666952,2360.666952,2360.666952,2360.666951,2360.666951,2360.666951,2360.666951,2360.666951,2360.666951,
   ** Warning ** SimHVAC: Maximum iterations (20) exceeded for all HVAC loops, at ANNUAL, 03/24 19:23 - 19:30
   **   ~~~   ** The solution for one or more of the Air Loop HVAC systems did not appear to converge
   **   ~~~   ** Air System Named = CENTRAL SYSTEM did not converge for mass flow rate
   **   ~~~   ** Check values should be zero. Most Recent values listed first.
   **   ~~~   ** Demand-to-Supply interface mass flow rate check value iteration history trace: 8.273544E-002,8.273544E-002,8.273544E-002,8.273544E-002,8.273544E-002,8.273544E-002,8.273544E-002,8.273544E-002,8.273544E-002,8.273544E-002,
   **   ~~~   ** Supply-to-demand interface deck 1 mass flow rate check value iteration history trace: 8.273544E-002,8.273544E-002,8.273544E-002,8.273544E-002,8.273544E-002,8.273544E-002,8.273544E-002,8.273544E-002,8.273544E-002,8.273544E-002,
   **   ~~~   ** Air System Named = CENTRAL SYSTEM did not converge for energy
   **   ~~~   ** Check values should be zero. Most Recent values listed first.
   **   ~~~   ** Demand-to-Supply interface energy check value iteration history trace: 1638.738728,1638.738728,1638.738728,1638.738728,1638.738728,1638.738728,1638.738727,1638.738727,1638.738727,1638.738727,
   **   ~~~   ** Supply-to-demand interface deck 1 energy check value iteration history trace: 2778.672848,2778.672848,2778.672848,2778.672848,2778.672848,2778.672848,2778.672847,2778.672847,2778.672847,2778.672847,
   ** Warning ** SimHVAC: Maximum iterations (20) exceeded for all HVAC loops, at ANNUAL, 04/06 05:04 - 05:08
   **   ~~~   ** The solution for one or more of the Air Loop HVAC systems did not appear to converge
   **   ~~~   ** Air System Named = CENTRAL SYSTEM did not converge for mass flow rate
   **   ~~~   ** Check values should be zero. Most Recent values listed first.
   **   ~~~   ** Demand-to-Supply interface mass flow rate check value iteration history trace: 8.558442E-002,8.558442E-002,8.558442E-002,8.558442E-002,8.558442E-002,8.558442E-002,8.558442E-002,8.558442E-002,8.558442E-002,8.558442E-002,
   **   ~~~   ** Supply-to-demand interface deck 1 mass flow rate check value iteration history trace: 8.558442E-002,8.558442E-002,8.558442E-002,8.558442E-002,8.558442E-002,8.558442E-002,8.558442E-002,8.558442E-002,8.558442E-002,8.558442E-002,
   **   ~~~   ** Air System Named = CENTRAL SYSTEM did not converge for energy
   **   ~~~   ** Check values should be zero. Most Recent values listed first.
   **   ~~~   ** Demand-to-Supply interface energy check value iteration history trace: 1687.461781,1687.461781,1687.461781,1687.461780,1687.461780,1687.461780,1687.461780,1687.461780,1687.461780,1687.461780,
   **   ~~~   ** Supply-to-demand interface deck 1 energy check value iteration history trace: 2559.920748,2559.920748,2559.920748,2559.920748,2559.920747,2559.920747,2559.920747,2559.920747,2559.920747,2559.920747,
   ** Warning ** SimHVAC: Maximum iterations (20) exceeded for all HVAC loops, at ANNUAL, 04/08 08:30 - 08:33
   **   ~~~   ** The solution for one or more of the Air Loop HVAC systems did not appear to converge
   **   ~~~   ** Air System Named = CENTRAL SYSTEM did not converge for mass flow rate
   **   ~~~   ** Check values should be zero. Most Recent values listed first.
   **   ~~~   ** Demand-to-Supply interface mass flow rate check value iteration history trace: 6.344965E-002,6.344965E-002,6.344965E-002,6.344965E-002,6.344965E-002,6.344965E-002,6.344965E-002,6.344965E-002,6.344965E-002,6.344965E-002,
   **   ~~~   ** Supply-to-demand interface deck 1 mass flow rate check value iteration history trace: 6.344965E-002,6.344965E-002,6.344965E-002,6.344965E-002,6.344965E-002,6.344965E-002,6.344965E-002,6.344965E-002,6.344965E-002,6.344965E-002,
   **   ~~~   ** Air System Named = CENTRAL SYSTEM did not converge for energy
   **   ~~~   ** Check values should be zero. Most Recent values listed first.
   **   ~~~   ** Demand-to-Supply interface energy check value iteration history trace: 1257.450892,1257.450892,1257.450891,1257.450891,1257.450891,1257.450891,1257.450891,1257.450891,1257.450891,1257.450891,
   **   ~~~   ** Supply-to-demand interface deck 1 energy check value iteration history trace: 2231.979568,2231.979568,2231.979568,2231.979568,2231.979568,2231.979568,2231.979568,2231.979568,2231.979568,2231.979568,
   ** Warning ** SimHVAC: Maximum iterations (20) exceeded for all HVAC loops, at ANNUAL, 04/28 08:45 - 09:00
   **   ~~~   ** The solution for one or more of the Air Loop HVAC systems did not appear to converge
   **   ~~~   ** Air System Named = CENTRAL SYSTEM did not converge for mass flow rate
   **   ~~~   ** Check values should be zero. Most Recent values listed first.
   **   ~~~   ** Demand-to-Supply interface mass flow rate check value iteration history trace: 8.128313E-002,8.128313E-002,8.128313E-002,8.128313E-002,8.128313E-002,8.128313E-002,8.128313E-002,8.128313E-002,8.128313E-002,8.128313E-002,
   **   ~~~   ** Supply-to-demand interface deck 1 mass flow rate check value iteration history trace: 8.128313E-002,8.128313E-002,8.128313E-002,8.128313E-002,8.128313E-002,8.128313E-002,8.128313E-002,8.128313E-002,8.128313E-002,8.128313E-002,
   **   ~~~   ** Air System Named = CENTRAL SYSTEM did not converge for energy
   **   ~~~   ** Check values should be zero. Most Recent values listed first.
   **   ~~~   ** Demand-to-Supply interface energy check value iteration history trace: 1602.598553,1602.598553,1602.598553,1602.598552,1602.598552,1602.598552,1602.598552,1602.598552,1602.598552,1602.598552,
   **   ~~~   ** Supply-to-demand interface deck 1 energy check value iteration history trace: 2726.717915,2726.717915,2726.717915,2726.717915,2726.717914,2726.717914,2726.717914,2726.717914,2726.717914,2726.717914,
   ** Warning ** CalcDoe2DXCoil: Coil:Cooling:DX:SingleSpeed "DX_COOLING_COIL" - Air-cooled condenser inlet dry-bulb temperature below 0 C. Outdoor dry-bulb temperature = -1.00E-001
   **   ~~~   **  ... Occurrence info = ANNUAL, 04/30 19:15 - 19:18
   **   ~~~   ** ... Operation at low ambient temperatures may require special performance curves.
   ************* Simulation Error Summary *************
   ** Warning ** The following Report Variables were requested but not generated -- check.rdd file
   **   ~~~   ** Either the IDF did not contain these elements, the variable name is misspelled,
   **   ~~~   ** or the requested variable is an advanced output which requires Output : Diagnostics, DisplayAdvancedReportVariables;
   ************* Key=*, VarName=BASEBOARD TOTAL HEATING ENERGY, Frequency=
   ************* Key=*, VarName=WATER HEATER NATURALGAS ENERGY, Frequency=
   ************* Key=*, VarName=COOLING COIL TOTAL HEATING ENERGY, Frequency=
   ************* There are 34 unused schedules in input.
   ************* There are 388 unused week schedules in input.
   ************* There are 396 unused day schedules in input.
   ************* Use Output:Diagnostics,DisplayUnusedSchedules; to see them.
   *************
   ************* ===== Recurring Error Summary =====
   ************* The following recurring error messages occurred.
   *************
   *************  ** Warning ** "TOTAL HOT WATER LOAD" - Target water temperature should be less than or equal to the hot water temperature error continues...
   *************  **   ~~~   **   This error occurred 145369 total times;
   *************  **   ~~~   **   during Warmup 0 times;
   *************  **   ~~~   **   during Sizing 0 times.
   *************  **   ~~~   **   Max=15.715341  Min=6.534754E-004
   *************
   *************  ** Warning ** SimHVAC: Exceeding Maximum iterations for all HVAC loops, during ANNUAL continues
   *************  **   ~~~   **   This error occurred 27 total times;
   *************  **   ~~~   **   during Warmup 0 times;
   *************  **   ~~~   **   during Sizing 0 times.
   *************
   *************  ** Warning ** CalcDoe2DXCoil: Coil:Cooling:DX:SingleSpeed="DX_COOLING_COIL" - Low condenser dry-bulb temperature error continues...
   *************  **   ~~~   **   This error occurred 5 total times;
   *************  **   ~~~   **   during Warmup 0 times;
   *************  **   ~~~   **   during Sizing 0 times.
   *************  **   ~~~   **   Max=-1.000000E-001 [C]  Min=-1.000000E-001 [C]
   *************
   *************
   ************* ===== Final Error Summary =====
   ************* The following error categories occurred.  Consider correcting or noting.
   ************* Nominally Unused Constructions
   ************* ..The nominally unused constructions warning is provided to alert you to potential conditions that can cause
   ************* ..extra time during simulation. Each construction is calculated by the algorithm indicated in the HeatBalanceAlgorithm
   ************* ..object. You may remove the constructions indicated (when you use the DisplayExtraWarnings option).
   *************
   ************* EnergyPlus Warmup Error Summary. During Warmup: 1 Warning; 0 Severe Errors.
   ************* EnergyPlus Sizing Error Summary. During Sizing: 4 Warning; 0 Severe Errors.
   ************* EnergyPlus Completed Successfully-- 145433 Warning; 0 Severe Errors; Elapsed Time=00hr 01min 30.26sec
