Program Version,EnergyPlus, Version 22.2.0-c249759bad, YMD=2023.09.01 20:08,
   ************* Beginning Zone Sizing Calculations
   ** Warning ** ProcessScheduleInput: Schedule:Constant="ALWAYS ON DISCRETE", Schedule Type Limits Name="ONOFF" not found -- will not be validated
   ** Warning ** Foundation:Kiva="KIVA FOUNDATION", no Interior Horizontal Insulation Material Name defined
   **   ~~~   ** Interior Horizontal Insulation Depth will not be used.
   ** Warning ** CheckUsedConstructions: There are 15 nominally unused constructions in input.
   **   ~~~   ** Each Unused construction is shown.
   ************* Construction=INTERIOR FLOOR
   ************* Construction=INTERIOR WINDOW
   ************* Construction=EXTERIOR DOOR
   ************* Construction=INTERIOR DOOR
   ************* Construction=GABLE CONSTRUCTION
   ************* Construction=CRAWL_FLOOR
   ************* Construction=INSULATED PIPE
   ************* Construction=PLAIN PIPE
   ************* Construction=TDD PIPE
   ************* Construction=TDD DOME
   ************* Construction=TDD DIFFUSER
   ************* Construction=CRAWL WALL
   ************* Construction=CEILING-FLOOR-LAYER
   ************* Construction=SLAB CONSTRUCTION W FULL R10 INSULATION
   ************* Construction=SLAB CONSTRUCTION W FULL R5 INSULATION
   ** Warning ** GetDXCoils: Coil:Heating:DX:SingleSpeed="DX_HEATING_COIL" curve values
   **   ~~~   ** ... Defrost Energy Input Ratio Function of Temperature Curve Name = DEFROSTEIR output is not equal to 1.0 (+ or - 10%) at rated conditions.
   **   ~~~   ** ... Curve output at rated conditions = 0.152
   ************* Beginning System Sizing Calculations
   ************* Beginning Plant Sizing Calculations
   ** Warning ** SizeDXCoil Coil:Cooling:DX:SingleSpeed DX_COOLING_COIL
   **   ~~~   ** ...Gross Rated Total Cooling Capacity [W] will be limited by the maximum rated volume flow per rated total capacity ratio.
   **   ~~~   ** ...DX coil volume flow rate ( m3/s ) = 0.371703
   **   ~~~   ** ...Requested capacity ( W ) = 5711.476
   **   ~~~   ** ...Requested flow/capacity ratio ( m3/s/W ) = 6.508E-005
   **   ~~~   ** ...Maximum flow/capacity ratio ( m3/s/W ) = 6.041E-005
   **   ~~~   ** ...Adjusted capacity ( W ) = 6153.009
   ** Warning ** Coil:WaterHeating:AirToWaterHeatPump:Wrapped "HEAT PUMP WATER HEATER EVAPORATOR": Rated air volume flow rate per watt of rated total water heating capacity is out of range
   **   ~~~   ** Min Rated Vol Flow Per Watt=[4.027E-005], Rated Vol Flow Per Watt=[1.510E-004], Max Rated Vol Flow Per Watt=[8.056E-005]. See Input-Output Reference Manual for valid range.
   ************* SizeFan: : Potential issue with equipment sizing for Fan:OnOff HEAT PUMP WATER HEATER FAN
   **   ~~~   ** User-Specified Maximum Flow Rate [m3/s] = 0.22653
   **   ~~~   ** differs from Design Size Maximum Flow Rate [m3/s] = 7.55250E-002
   **   ~~~   ** This may, or may not, indicate mismatched component sizes.
   **   ~~~   ** Verify that the value entered is intended and is consistent with other components.
   ** Warning ** Water heater = WATER HEATER TANK:  Recovery Efficiency and Energy Factor could not be calculated during the test for standard ratings
   **   ~~~   ** Setpoint was never recovered and/or heater never turned on
   ** Warning ** Check input. Pump nominal power or motor efficiency is set to 0, for pump=MAINS PRESSURE
   ** Warning ** Output:Meter: invalid Key Name="ELECTRIC_RANGE:INTERIOREQUIPMENT:ELECTRICITY" - not found.
   ** Warning ** Output:Meter: invalid Key Name="ELECTRIC_DRYER:INTERIOREQUIPMENT:ELECTRICITY" - not found.
   ** Warning ** Output:Meter: invalid Key Name="HEATRECOVERY:ELECTRICITY" - not found.
   ** Warning ** Output:Meter: invalid Key Name="HEATING:NATURALGAS" - not found.
   ** Warning ** Output:Meter: invalid Key Name="WATERSYSTEMS:NATURALGAS" - not found.
   ** Warning ** Output:Meter: invalid Key Name="PROPANE:FACILITY" - not found.
   ** Warning ** Output:Meter: invalid Key Name="HEATING:PROPANE" - not found.
   ************* Testing Individual Branch Integrity
   ************* All Branches passed integrity testing
   ************* Testing Individual Supply Air Path Integrity
   ************* All Supply Air Paths passed integrity testing
   ************* Testing Individual Return Air Path Integrity
   ************* All Return Air Paths passed integrity testing
   ************* No node connection errors were found.
   ************* Beginning Simulation
   ** Warning ** AirflowNetwork::Solver::validate_distribution: Heat pump water heater is simulated along with an AirflowNetwork but is not included in the AirflowNetwork.
   ** Warning ** CalcEquipmentFlowRates: "TOTAL HOT WATER LOAD" - Target water temperature is greater than the hot water temperature by (3.13 C)
   **   ~~~   **  Environment=EXTREME_WINTER, at Simulation time=12/15 07:00 - 07:15
   **   ~~~   ** ...target water temperature     = 53.33 C
   **   ~~~   ** ...hot water temperature        = 50.21 C
   **   ~~~   ** ...Target water temperature should be less than or equal to the hot water temperature. Verify temperature setpoints and schedules.
   ** Warning ** SimHVAC: Maximum iterations (20) exceeded for all HVAC loops, at ANNUAL, 01/06 13:00 - 13:15
   **   ~~~   ** The solution for one or more of the Air Loop HVAC systems did not appear to converge
   **   ~~~   ** Air System Named = CENTRAL SYSTEM did not converge for mass flow rate
   **   ~~~   ** Check values should be zero. Most Recent values listed first.
   **   ~~~   ** Demand-to-Supply interface mass flow rate check value iteration history trace: 7.336380E-002,7.336380E-002,7.336380E-002,7.336380E-002,7.336380E-002,7.336380E-002,7.336380E-002,7.336380E-002,7.336380E-002,7.336380E-002,
   **   ~~~   ** Supply-to-demand interface deck 1 mass flow rate check value iteration history trace: 7.336380E-002,7.336380E-002,7.336380E-002,7.336380E-002,7.336380E-002,7.336380E-002,7.336380E-002,7.336380E-002,7.336380E-002,7.336380E-002,
   **   ~~~   ** Air System Named = CENTRAL SYSTEM did not converge for energy
   **   ~~~   ** Check values should be zero. Most Recent values listed first.
   **   ~~~   ** Demand-to-Supply interface energy check value iteration history trace: 1453.787427,1453.787427,1453.787427,1453.787427,1453.787427,1453.787427,1453.787427,1453.787427,1453.787426,1453.787426,
   **   ~~~   ** Supply-to-demand interface deck 1 energy check value iteration history trace: 2265.832718,2265.832718,2265.832718,2265.832718,2265.832717,2265.832717,2265.832717,2265.832717,2265.832717,2265.832717,
   ** Warning ** SimHVAC: Maximum iterations (20) exceeded for all HVAC loops, at ANNUAL, 01/25 16:25 - 16:30
   **   ~~~   ** The solution for one or more of the Air Loop HVAC systems did not appear to converge
   **   ~~~   ** Air System Named = CENTRAL SYSTEM did not converge for mass flow rate
   **   ~~~   ** Check values should be zero. Most Recent values listed first.
   **   ~~~   ** Demand-to-Supply interface mass flow rate check value iteration history trace: 8.742924E-002,8.742924E-002,8.742924E-002,8.742924E-002,8.742924E-002,8.742924E-002,8.742924E-002,8.742924E-002,8.742924E-002,8.742924E-002,
   **   ~~~   ** Supply-to-demand interface deck 1 mass flow rate check value iteration history trace: 8.742924E-002,8.742924E-002,8.742924E-002,8.742924E-002,8.742924E-002,8.742924E-002,8.742924E-002,8.742924E-002,8.742924E-002,8.742924E-002,
   **   ~~~   ** Air System Named = CENTRAL SYSTEM did not converge for energy
   **   ~~~   ** Check values should be zero. Most Recent values listed first.
   **   ~~~   ** Demand-to-Supply interface energy check value iteration history trace: 1710.977452,1710.977452,1710.977452,1710.977452,1710.977452,1710.977452,1710.977452,1710.977452,1710.977452,1710.977451,
   **   ~~~   ** Supply-to-demand interface deck 1 energy check value iteration history trace: 2748.254189,2748.254189,2748.254189,2748.254188,2748.254188,2748.254188,2748.254188,2748.254188,2748.254188,2748.254187,
   ** Warning ** SimHVAC: Maximum iterations (20) exceeded for all HVAC loops, at ANNUAL, 02/23 12:45 - 12:50
   **   ~~~   ** The solution for one or more of the Air Loop HVAC systems did not appear to converge
   **   ~~~   ** Air System Named = CENTRAL SYSTEM did not converge for mass flow rate
   **   ~~~   ** Check values should be zero. Most Recent values listed first.
   **   ~~~   ** Demand-to-Supply interface mass flow rate check value iteration history trace: 7.720886E-002,7.720886E-002,7.720886E-002,7.720886E-002,7.720886E-002,7.720886E-002,7.720886E-002,7.720886E-002,7.720886E-002,7.720886E-002,
   **   ~~~   ** Supply-to-demand interface deck 1 mass flow rate check value iteration history trace: 7.720886E-002,7.720886E-002,7.720886E-002,7.720886E-002,7.720886E-002,7.720886E-002,7.720886E-002,7.720886E-002,7.720886E-002,7.720886E-002,
   **   ~~~   ** Air System Named = CENTRAL SYSTEM did not converge for energy
   **   ~~~   ** Check values should be zero. Most Recent values listed first.
   **   ~~~   ** Demand-to-Supply interface energy check value iteration history trace: 1530.045992,1530.045992,1530.045992,1530.045992,1530.045991,1530.045991,1530.045991,1530.045991,1530.045991,1530.045991,
   **   ~~~   ** Supply-to-demand interface deck 1 energy check value iteration history trace: 2378.467642,2378.467642,2378.467642,2378.467642,2378.467642,2378.467641,2378.467641,2378.467641,2378.467641,2378.467641,
   ** Warning ** SimHVAC: Maximum iterations (20) exceeded for all HVAC loops, at ANNUAL, 03/12 21:45 - 21:50
   **   ~~~   ** The solution for one or more of the Air Loop HVAC systems did not appear to converge
   **   ~~~   ** Air System Named = CENTRAL SYSTEM did not converge for mass flow rate
   **   ~~~   ** Check values should be zero. Most Recent values listed first.
   **   ~~~   ** Demand-to-Supply interface mass flow rate check value iteration history trace: 9.001950E-002,9.001950E-002,9.001950E-002,9.001950E-002,9.001950E-002,9.001950E-002,9.001950E-002,9.001950E-002,9.001950E-002,9.001950E-002,
   **   ~~~   ** Supply-to-demand interface deck 1 mass flow rate check value iteration history trace: 9.001950E-002,9.001950E-002,9.001950E-002,9.001950E-002,9.001950E-002,9.001950E-002,9.001950E-002,9.001950E-002,9.001950E-002,9.001950E-002,
   **   ~~~   ** Air System Named = CENTRAL SYSTEM did not converge for energy
   **   ~~~   ** Check values should be zero. Most Recent values listed first.
   **   ~~~   ** Demand-to-Supply interface energy check value iteration history trace: 1785.292816,1785.292815,1785.292815,1785.292815,1785.292815,1785.292815,1785.292815,1785.292815,1785.292815,1785.292815,
   **   ~~~   ** Supply-to-demand interface deck 1 energy check value iteration history trace: 2871.612427,2871.612427,2871.612427,2871.612427,2871.612427,2871.612426,2871.612426,2871.612426,2871.612426,2871.612426,
   ** Warning ** SimHVAC: Maximum iterations (20) exceeded for all HVAC loops, at ANNUAL, 03/21 13:15 - 13:30
   **   ~~~   ** The solution for one or more of the Air Loop HVAC systems did not appear to converge
   **   ~~~   ** Air System Named = CENTRAL SYSTEM did not converge for mass flow rate
   **   ~~~   ** Check values should be zero. Most Recent values listed first.
   **   ~~~   ** Demand-to-Supply interface mass flow rate check value iteration history trace: 7.818515E-002,7.818515E-002,7.818515E-002,7.818515E-002,7.818515E-002,7.818515E-002,7.818515E-002,7.818515E-002,7.818515E-002,7.818515E-002,
   **   ~~~   ** Supply-to-demand interface deck 1 mass flow rate check value iteration history trace: 7.818515E-002,7.818515E-002,7.818515E-002,7.818515E-002,7.818515E-002,7.818515E-002,7.818515E-002,7.818515E-002,7.818515E-002,7.818515E-002,
   **   ~~~   ** Air System Named = CENTRAL SYSTEM did not converge for energy
   **   ~~~   ** Check values should be zero. Most Recent values listed first.
   **   ~~~   ** Demand-to-Supply interface energy check value iteration history trace: 1549.320629,1549.320629,1549.320629,1549.320629,1549.320629,1549.320628,1549.320628,1549.320628,1549.320628,1549.320628,
   **   ~~~   ** Supply-to-demand interface deck 1 energy check value iteration history trace: 2489.175491,2489.175491,2489.175491,2489.175491,2489.175491,2489.175491,2489.175491,2489.175490,2489.175490,2489.175490,
   ** Warning ** SimHVAC: Maximum iterations (20) exceeded for all HVAC loops, at ANNUAL, 04/04 21:08 - 21:15
   **   ~~~   ** The solution for one or more of the Air Loop HVAC systems did not appear to converge
   **   ~~~   ** Air System Named = CENTRAL SYSTEM did not converge for mass flow rate
   **   ~~~   ** Check values should be zero. Most Recent values listed first.
   **   ~~~   ** Demand-to-Supply interface mass flow rate check value iteration history trace: 6.268356E-002,6.268356E-002,6.268356E-002,6.268356E-002,6.268356E-002,6.268356E-002,6.268356E-002,6.268356E-002,6.268356E-002,6.268356E-002,
   **   ~~~   ** Supply-to-demand interface deck 1 mass flow rate check value iteration history trace: 6.268356E-002,6.268356E-002,6.268356E-002,6.268356E-002,6.268356E-002,6.268356E-002,6.268356E-002,6.268356E-002,6.268356E-002,6.268356E-002,
   **   ~~~   ** Air System Named = CENTRAL SYSTEM did not converge for energy
   **   ~~~   ** Check values should be zero. Most Recent values listed first.
   **   ~~~   ** Demand-to-Supply interface energy check value iteration history trace: 1241.651575,1241.651575,1241.651575,1241.651575,1241.651575,1241.651575,1241.651575,1241.651575,1241.651575,1241.651574,
   **   ~~~   ** Supply-to-demand interface deck 1 energy check value iteration history trace: 2167.660490,2167.660490,2167.660490,2167.660490,2167.660490,2167.660490,2167.660490,2167.660490,2167.660490,2167.660490,
   ** Warning ** SimHVAC: Maximum iterations (20) exceeded for all HVAC loops, at ANNUAL, 04/09 23:08 - 23:15
   **   ~~~   ** The solution for one or more of the Air Loop HVAC systems did not appear to converge
   **   ~~~   ** Air System Named = CENTRAL SYSTEM did not converge for mass flow rate
   **   ~~~   ** Check values should be zero. Most Recent values listed first.
   **   ~~~   ** Demand-to-Supply interface mass flow rate check value iteration history trace: 8.886082E-002,8.886082E-002,8.886082E-002,8.886082E-002,8.886082E-002,8.886082E-002,8.886082E-002,8.886082E-002,8.886082E-002,8.886082E-002,
   **   ~~~   ** Supply-to-demand interface deck 1 mass flow rate check value iteration history trace: 8.886082E-002,8.886082E-002,8.886082E-002,8.886082E-002,8.886082E-002,8.886082E-002,8.886082E-002,8.886082E-002,8.886082E-002,8.886082E-002,
   **   ~~~   ** Air System Named = CENTRAL SYSTEM did not converge for energy
   **   ~~~   ** Check values should be zero. Most Recent values listed first.
   **   ~~~   ** Demand-to-Supply interface energy check value iteration history trace: 1649.236762,1649.236762,1649.236762,1649.236762,1649.236762,1649.236762,1649.236762,1649.236762,1649.236761,1649.236761,
   **   ~~~   ** Supply-to-demand interface deck 1 energy check value iteration history trace: 2533.759386,2533.759386,2533.759386,2533.759385,2533.759385,2533.759385,2533.759385,2533.759385,2533.759385,2533.759385,
   ** Warning ** SimHVAC: Maximum iterations (20) exceeded for all HVAC loops, at ANNUAL, 04/15 06:45 - 07:00
   **   ~~~   ** The solution for one or more of the Air Loop HVAC systems did not appear to converge
   **   ~~~   ** Air System Named = CENTRAL SYSTEM did not converge for mass flow rate
   **   ~~~   ** Check values should be zero. Most Recent values listed first.
   **   ~~~   ** Demand-to-Supply interface mass flow rate check value iteration history trace: 6.129824E-002,6.129824E-002,6.129824E-002,6.129824E-002,6.129824E-002,6.129824E-002,6.129824E-002,6.129824E-002,6.129824E-002,6.129824E-002,
   **   ~~~   ** Supply-to-demand interface deck 1 mass flow rate check value iteration history trace: 6.129824E-002,6.129824E-002,6.129824E-002,6.129824E-002,6.129824E-002,6.129824E-002,6.129824E-002,6.129824E-002,6.129824E-002,6.129824E-002,
   **   ~~~   ** Air System Named = CENTRAL SYSTEM did not converge for energy
   **   ~~~   ** Check values should be zero. Most Recent values listed first.
   **   ~~~   ** Demand-to-Supply interface energy check value iteration history trace: 1226.581400,1226.581400,1226.581400,1226.581400,1226.581400,1226.581400,1226.581400,1226.581400,1226.581400,1226.581400,
   **   ~~~   ** Supply-to-demand interface deck 1 energy check value iteration history trace: 1844.367489,1844.367489,1844.367489,1844.367489,1844.367489,1844.367489,1844.367489,1844.367489,1844.367489,1844.367489,
   ** Warning ** SimHVAC: Maximum iterations (20) exceeded for all HVAC loops, at ANNUAL, 05/10 09:45 - 09:52
   **   ~~~   ** The solution for one or more of the Air Loop HVAC systems did not appear to converge
   **   ~~~   ** Air System Named = CENTRAL SYSTEM did not converge for mass flow rate
   **   ~~~   ** Check values should be zero. Most Recent values listed first.
   **   ~~~   ** Demand-to-Supply interface mass flow rate check value iteration history trace: 7.703842E-002,7.703842E-002,7.703842E-002,7.703842E-002,7.703842E-002,7.703842E-002,7.703842E-002,7.703842E-002,7.703842E-002,7.703842E-002,
   **   ~~~   ** Supply-to-demand interface deck 1 mass flow rate check value iteration history trace: 7.703842E-002,7.703842E-002,7.703842E-002,7.703842E-002,7.703842E-002,7.703842E-002,7.703842E-002,7.703842E-002,7.703842E-002,7.703842E-002,
   **   ~~~   ** Air System Named = CENTRAL SYSTEM did not converge for energy
   **   ~~~   ** Check values should be zero. Most Recent values listed first.
   **   ~~~   ** Demand-to-Supply interface energy check value iteration history trace: 1523.436620,1523.436620,1523.436620,1523.436620,1523.436620,1523.436619,1523.436619,1523.436619,1523.436619,1523.436619,
   **   ~~~   ** Supply-to-demand interface deck 1 energy check value iteration history trace: 2644.661473,2644.661473,2644.661473,2644.661473,2644.661473,2644.661472,2644.661472,2644.661472,2644.661472,2644.661472,
   ** Warning ** SimHVAC: Maximum iterations (20) exceeded for all HVAC loops, at ANNUAL, 05/18 11:30 - 11:45
   **   ~~~   ** The solution for one or more of the Air Loop HVAC systems did not appear to converge
   **   ~~~   ** Air System Named = CENTRAL SYSTEM did not converge for mass flow rate
   **   ~~~   ** Check values should be zero. Most Recent values listed first.
   **   ~~~   ** Demand-to-Supply interface mass flow rate check value iteration history trace: 6.247133E-002,6.247133E-002,6.247133E-002,6.247133E-002,6.247133E-002,6.247133E-002,6.247133E-002,6.247133E-002,6.247133E-002,6.247133E-002,
   **   ~~~   ** Supply-to-demand interface deck 1 mass flow rate check value iteration history trace: 6.247133E-002,6.247133E-002,6.247133E-002,6.247133E-002,6.247133E-002,6.247133E-002,6.247133E-002,6.247133E-002,6.247133E-002,6.247133E-002,
   **   ~~~   ** Air System Named = CENTRAL SYSTEM did not converge for energy
   **   ~~~   ** Check values should be zero. Most Recent values listed first.
   **   ~~~   ** Demand-to-Supply interface energy check value iteration history trace: 1238.319233,1238.319233,1238.319233,1238.319233,1238.319233,1238.319233,1238.319233,1238.319233,1238.319233,1238.319232,
   **   ~~~   ** Supply-to-demand interface deck 1 energy check value iteration history trace: 2163.914768,2163.914768,2163.914768,2163.914768,2163.914768,2163.914768,2163.914768,2163.914768,2163.914768,2163.914768,
   ** Warning ** SimHVAC: Maximum iterations (20) exceeded for all HVAC loops, at ANNUAL, 05/18 12:15 - 12:30
   **   ~~~   ** The solution for one or more of the Air Loop HVAC systems did not appear to converge
   **   ~~~   ** Air System Named = CENTRAL SYSTEM did not converge for mass flow rate
   **   ~~~   ** Check values should be zero. Most Recent values listed first.
   **   ~~~   ** Demand-to-Supply interface mass flow rate check value iteration history trace: 5.786229E-002,5.786229E-002,5.786229E-002,5.786229E-002,5.786229E-002,5.786229E-002,5.786229E-002,5.786229E-002,5.786229E-002,5.786229E-002,
   **   ~~~   ** Supply-to-demand interface deck 1 mass flow rate check value iteration history trace: 5.786229E-002,5.786229E-002,5.786229E-002,5.786229E-002,5.786229E-002,5.786229E-002,5.786229E-002,5.786229E-002,5.786229E-002,5.786229E-002,
   **   ~~~   ** Air System Named = CENTRAL SYSTEM did not converge for energy
   **   ~~~   ** Check values should be zero. Most Recent values listed first.
   **   ~~~   ** Demand-to-Supply interface energy check value iteration history trace: 1145.119389,1145.119389,1145.119389,1145.119389,1145.119389,1145.119389,1145.119389,1145.119389,1145.119389,1145.119389,
   **   ~~~   ** Supply-to-demand interface deck 1 energy check value iteration history trace: 2018.207150,2018.207150,2018.207150,2018.207150,2018.207150,2018.207150,2018.207150,2018.207150,2018.207150,2018.207150,
   ** Warning ** SimHVAC: Maximum iterations (20) exceeded for all HVAC loops, at ANNUAL, 06/20 07:03 - 07:05
   **   ~~~   ** The solution for one or more of the Air Loop HVAC systems did not appear to converge
   **   ~~~   ** Air System Named = CENTRAL SYSTEM did not converge for mass flow rate
   **   ~~~   ** Check values should be zero. Most Recent values listed first.
   **   ~~~   ** Demand-to-Supply interface mass flow rate check value iteration history trace: 0.281645,0.281645,0.281645,0.281645,0.281645,0.281645,0.281645,0.281645,0.281645,0.281645,
   **   ~~~   ** Supply-to-demand interface deck 1 mass flow rate check value iteration history trace: 0.281645,0.281645,0.281645,0.281645,0.281645,0.281645,0.281645,0.281645,0.281645,0.281645,
   **   ~~~   ** Air System Named = CENTRAL SYSTEM did not converge for energy
   **   ~~~   ** Check values should be zero. Most Recent values listed first.
   **   ~~~   ** Demand-to-Supply interface energy check value iteration history trace: 6655.258604,6655.258605,6655.258606,6655.258607,6655.258608,6655.258609,6655.258610,6655.258611,6655.258612,6655.258612,
   **   ~~~   ** Supply-to-demand interface deck 1 energy check value iteration history trace: 3222.004584,3222.004585,3222.004585,3222.004586,3222.004586,3222.004587,3222.004587,3222.004588,3222.004588,3222.004589,
   ** Warning ** SimHVAC: Maximum iterations (20) exceeded for all HVAC loops, at ANNUAL, 06/20 07:33 - 07:34
   **   ~~~   ** The solution for one or more of the Air Loop HVAC systems did not appear to converge
   **   ~~~   ** Air System Named = CENTRAL SYSTEM did not converge for mass flow rate
   **   ~~~   ** Check values should be zero. Most Recent values listed first.
   **   ~~~   ** Demand-to-Supply interface mass flow rate check value iteration history trace: 0.193957,0.193957,0.193957,0.193957,0.193957,0.193957,0.193957,0.193957,0.193957,0.193957,
   **   ~~~   ** Supply-to-demand interface deck 1 mass flow rate check value iteration history trace: 0.193957,0.193957,0.193957,0.193957,0.193957,0.193957,0.193957,0.193957,0.193957,0.193957,
   **   ~~~   ** Air System Named = CENTRAL SYSTEM did not converge for energy
   **   ~~~   ** Check values should be zero. Most Recent values listed first.
   **   ~~~   ** Demand-to-Supply interface energy check value iteration history trace: 4579.018425,4579.018426,4579.018427,4579.018428,4579.018429,4579.018429,4579.018430,4579.018431,4579.018432,4579.018433,
   **   ~~~   ** Supply-to-demand interface deck 1 energy check value iteration history trace: 2232.512469,2232.512469,2232.512469,2232.512470,2232.512470,2232.512471,2232.512471,2232.512471,2232.512472,2232.512472,
   ** Warning ** SimHVAC: Maximum iterations (20) exceeded for all HVAC loops, at ANNUAL, 08/22 12:38 - 12:45
   **   ~~~   ** The solution for one or more of the Air Loop HVAC systems did not appear to converge
   **   ~~~   ** Air System Named = CENTRAL SYSTEM did not converge for mass flow rate
   **   ~~~   ** Check values should be zero. Most Recent values listed first.
   **   ~~~   ** Demand-to-Supply interface mass flow rate check value iteration history trace: 6.141771E-002,6.141771E-002,6.141771E-002,6.141771E-002,6.141771E-002,6.141771E-002,6.141771E-002,6.141771E-002,6.141771E-002,6.141771E-002,
   **   ~~~   ** Supply-to-demand interface deck 1 mass flow rate check value iteration history trace: 6.141771E-002,6.141771E-002,6.141771E-002,6.141771E-002,6.141771E-002,6.141771E-002,6.141771E-002,6.141771E-002,6.141771E-002,6.141771E-002,
   **   ~~~   ** Air System Named = CENTRAL SYSTEM did not converge for energy
   **   ~~~   ** Check values should be zero. Most Recent values listed first.
   **   ~~~   ** Demand-to-Supply interface energy check value iteration history trace: 1448.423455,1448.423456,1448.423456,1448.423456,1448.423457,1448.423457,1448.423457,1448.423458,1448.423458,1448.423458,
   **   ~~~   ** Supply-to-demand interface deck 1 energy check value iteration history trace: 765.990551,765.990551,765.990551,765.990551,765.990552,765.990552,765.990552,765.990552,765.990552,765.990552,
   ************* Simulation Error Summary *************
   ** Warning ** The following Report Variables were requested but not generated -- check.rdd file
   **   ~~~   ** Either the IDF did not contain these elements, the variable name is misspelled,
   **   ~~~   ** or the requested variable is an advanced output which requires Output : Diagnostics, DisplayAdvancedReportVariables;
   ************* Key=*, VarName=BASEBOARD TOTAL HEATING ENERGY, Frequency=
   ************* Key=*, VarName=WATER HEATER NATURALGAS ENERGY, Frequency=
   ************* Key=*, VarName=COOLING COIL TOTAL HEATING ENERGY, Frequency=
   ************* There are 34 unused schedules in input.
   ************* There are 388 unused week schedules in input.
   ************* There are 396 unused day schedules in input.
   ************* Use Output:Diagnostics,DisplayUnusedSchedules; to see them.
   *************
   ************* ===== Recurring Error Summary =====
   ************* The following recurring error messages occurred.
   *************
   *************  ** Warning ** "TOTAL HOT WATER LOAD" - Target water temperature should be less than or equal to the hot water temperature error continues...
   *************  **   ~~~   **   This error occurred 148209 total times;
   *************  **   ~~~   **   during Warmup 0 times;
   *************  **   ~~~   **   during Sizing 0 times.
   *************  **   ~~~   **   Max=16.318337  Min=5.752606E-004
   *************
   *************  ** Warning ** SimHVAC: Exceeding Maximum iterations for all HVAC loops, during ANNUAL continues
   *************  **   ~~~   **   This error occurred 7 total times;
   *************  **   ~~~   **   during Warmup 0 times;
   *************  **   ~~~   **   during Sizing 0 times.
   *************
   *************
   ************* ===== Final Error Summary =====
   ************* The following error categories occurred.  Consider correcting or noting.
   ************* Nominally Unused Constructions
   ************* ..The nominally unused constructions warning is provided to alert you to potential conditions that can cause
   ************* ..extra time during simulation. Each construction is calculated by the algorithm indicated in the HeatBalanceAlgorithm
   ************* ..object. You may remove the constructions indicated (when you use the DisplayExtraWarnings option).
   *************
   ************* EnergyPlus Warmup Error Summary. During Warmup: 1 Warning; 0 Severe Errors.
   ************* EnergyPlus Sizing Error Summary. During Sizing: 4 Warning; 0 Severe Errors.
   ************* EnergyPlus Completed Successfully-- 148248 Warning; 0 Severe Errors; Elapsed Time=00hr 01min 32.57sec
