Program Version,EnergyPlus, Version 22.2.0-c249759bad, YMD=2024.09.13 10:36,
   ************* Beginning Zone Sizing Calculations
   ** Warning ** Foundation:Kiva="KIVA FOUNDATION", no Interior Horizontal Insulation Material Name defined
   **   ~~~   ** Interior Horizontal Insulation Depth will not be used.
   ** Warning ** CheckUsedConstructions: There are 16 nominally unused constructions in input.
   **   ~~~   ** Each Unused construction is shown.
   ************* Construction=INTERIOR FLOOR
   ************* Construction=INTERIOR WINDOW
   ************* Construction=EXTERIOR DOOR
   ************* Construction=INTERIOR DOOR
   ************* Construction=GABLE CONSTRUCTION
   ************* Construction=CRAWL_FLOOR
   ************* Construction=INSULATED PIPE
   ************* Construction=PLAIN PIPE
   ************* Construction=TDD PIPE
   ************* Construction=TDD DOME
   ************* Construction=TDD DIFFUSER
   ************* Construction=CRAWL WALL
   ************* Construction=INTERIORFURNISHINGS
   ************* Construction=CEILING-FLOOR-LAYER
   ************* Construction=SLAB CONSTRUCTION W FULL R10 INSULATION
   ************* Construction=SLAB CONSTRUCTION W FULL R5 INSULATION
   ************* Beginning System Sizing Calculations
   ** Warning ** ManageSizing: For a plant sizing run, there must be at least 1 Sizing:Plant object input. SimulationControl Plant Sizing option ignored.
   ************* SizeHVACSingleDuct: Potential issue with equipment sizing for AirTerminal:SingleDuct:ConstantVolume:NoReheat = "ZONEDIRECTAIR".
   **   ~~~   ** User-Specified Maximum Air Flow Rate of 0.26547 [m3/s]
   **   ~~~   ** differs from Design Size Maximum Air Flow Rate of 9.65823E-002 [m3/s]
   **   ~~~   ** This may, or may not, indicate mismatched component sizes.
   **   ~~~   ** Verify that the value entered is intended and is consistent with other components.
   ** Warning ** GetDXCoils: Coil:Heating:DX:SingleSpeed="DX_HEATING_COIL" curve values
   **   ~~~   ** ... Defrost Energy Input Ratio Function of Temperature Curve Name = DEFROSTEIR output is not equal to 1.0 (+ or - 10%) at rated conditions.
   **   ~~~   ** ... Curve output at rated conditions = 0.152
   ************* SizeDXCoil: Potential issue with equipment sizing for Coil:Cooling:DX:SingleSpeed DX_COOLING_COIL
   **   ~~~   ** User-Specified Gross Rated Total Cooling Capacity [W] = 5275.27926
   **   ~~~   ** differs from Design Size Gross Rated Total Cooling Capacity [W] = 8591.05925
   **   ~~~   ** This may, or may not, indicate mismatched component sizes.
   **   ~~~   ** Verify that the value entered is intended and is consistent with other components.
   ** Warning ** The Standard Ratings is calculated for Coil:Cooling:DX:SingleSpeed = DX_COOLING_COIL but not at the AHRI test condition due to curve out of bound.
   **   ~~~   **  Review the Standard Ratings calculations in the Engineering Reference for this coil type. Also, use Output:Diagnostics, DisplayExtraWarnings for further guidance.
   **   ~~~   ** CheckCurveLimitsForStandardRatings: The max and/or min limits specified in the corresponding curve objects
   **   ~~~   **  do not include the AHRI test conditions required to calculate one or more of the Standard Rating values.
   **   ~~~   ** Coil:Cooling:DX:SingleSpeed=DX_COOLING_COIL:  Integrated Energy Efficiency Ratio (IEER) calculated is not at the AHRI test condition.
   **   ~~~   **  Check limits in Total Cooling Capacity Function of Temperature Curve, Curve Type = Curve:Biquadratic, Curve Name = COOL-CAP-FT
   **   ~~~   **  Check limits in EIR Function of Temperature Curve, Curve Type = Curve:Biquadratic, Curve Name = COOL-EIR-FT
   ** Warning ** Output:Meter: invalid Key Name="PUMPS:ELECTRICITY" - not found.
   ** Warning ** Output:Meter: invalid Key Name="WATERSYSTEMS:ELECTRICITY" - not found.
   ** Warning ** Output:Meter: invalid Key Name="ELECTRIC_RANGE:INTERIOREQUIPMENT:ELECTRICITY" - not found.
   ** Warning ** Output:Meter: invalid Key Name="ELECTRIC_DRYER:INTERIOREQUIPMENT:ELECTRICITY" - not found.
   ** Warning ** Output:Meter: invalid Key Name="GAS_DRYER:INTERIOREQUIPMENT:ELECTRICITY" - not found.
   ** Warning ** Output:Meter: invalid Key Name="CLOTHESWASHER:INTERIOREQUIPMENT:ELECTRICITY" - not found.
   ** Warning ** Output:Meter: invalid Key Name="DISHWASHER:INTERIOREQUIPMENT:ELECTRICITY" - not found.
   ** Warning ** Output:Meter: invalid Key Name="REFRIGERATOR:INTERIOREQUIPMENT:ELECTRICITY" - not found.
   ** Warning ** Output:Meter: invalid Key Name="HEATRECOVERY:ELECTRICITY" - not found.
   ** Warning ** Output:Meter: invalid Key Name="WATERSYSTEMS:NATURALGAS" - not found.
   ** Warning ** Output:Meter: invalid Key Name="GAS_DRYER:INTERIOREQUIPMENT:NATURALGAS" - not found.
   ************* Testing Individual Branch Integrity
   ************* All Branches passed integrity testing
   ************* Testing Individual Supply Air Path Integrity
   ************* All Supply Air Paths passed integrity testing
   ************* Testing Individual Return Air Path Integrity
   ************* All Return Air Paths passed integrity testing
   ************* No node connection errors were found.
   ************* Beginning Simulation
   ** Warning ** ReadEPlusWeatherForDay: Feb29 data encountered but will not be processed.
   **   ~~~   ** ...WeatherFile does not allow Leap Years. HOLIDAYS/DAYLIGHT SAVINGS header must indicate "Yes".
   ** Warning ** AirflowNetwork: The window or door is open during HVAC system operation WINDOW_FLOOR1_FRONT
   **   ~~~   ** The window or door opening factor is 0.50
   **   ~~~   **  Environment=ANNUAL, at Simulation time=05/09 16:50 - 16:55
   ** Warning ** AirflowNetwork: The window or door is open during HVAC system operation WINDOW_FLOOR1_BACK
   **   ~~~   ** The window or door opening factor is 0.50
   **   ~~~   **  Environment=ANNUAL, at Simulation time=05/09 16:50 - 16:55
   ** Warning ** AirflowNetwork: The window or door is open during HVAC system operation WINDOW_FLOOR1_RIGHT
   **   ~~~   ** The window or door opening factor is 0.50
   **   ~~~   **  Environment=ANNUAL, at Simulation time=05/09 16:50 - 16:55
   ** Warning ** AirflowNetwork: The window or door is open during HVAC system operation WINDOW_FLOOR1_LEFT
   **   ~~~   ** The window or door opening factor is 0.50
   **   ~~~   **  Environment=ANNUAL, at Simulation time=05/09 16:50 - 16:55
   ************* Simulation Error Summary *************
   ** Warning ** The following Report Variables were requested but not generated -- check.rdd file
   **   ~~~   ** Either the IDF did not contain these elements, the variable name is misspelled,
   **   ~~~   ** or the requested variable is an advanced output which requires Output : Diagnostics, DisplayAdvancedReportVariables;
   ************* Key=*, VarName=HEATING COIL NATURALGAS ENERGY, Frequency=
   ************* Key=*, VarName=HEATING COIL PROPANE ENERGY, Frequency=
   ************* Key=*, VarName=BASEBOARD ELECTRICITY ENERGY, Frequency=
   ************* There are 42 unused schedules in input.
   ************* There are 1125 unused week schedules in input.
   ************* There are 1139 unused day schedules in input.
   ************* Use Output:Diagnostics,DisplayUnusedSchedules; to see them.
   *************
   ************* ===== Recurring Error Summary =====
   ************* The following recurring error messages occurred.
   *************
   *************  ** Warning ** AirFlowNetwork: WINDOW_FLOOR1_FRONT The window or door is open during HVAC system operation error continues...
   *************  **   ~~~   **   This error occurred 228 total times;
   *************  **   ~~~   **   during Warmup 0 times;
   *************  **   ~~~   **   during Sizing 0 times.
   *************  **   ~~~   **   Max=0.5  Min=0.5
   *************
   *************  ** Warning ** AirFlowNetwork: WINDOW_FLOOR1_BACK The window or door is open during HVAC system operation error continues...
   *************  **   ~~~   **   This error occurred 228 total times;
   *************  **   ~~~   **   during Warmup 0 times;
   *************  **   ~~~   **   during Sizing 0 times.
   *************  **   ~~~   **   Max=0.5  Min=0.5
   *************
   *************  ** Warning ** AirFlowNetwork: WINDOW_FLOOR1_RIGHT The window or door is open during HVAC system operation error continues...
   *************  **   ~~~   **   This error occurred 228 total times;
   *************  **   ~~~   **   during Warmup 0 times;
   *************  **   ~~~   **   during Sizing 0 times.
   *************  **   ~~~   **   Max=0.5  Min=0.5
   *************
   *************  ** Warning ** AirFlowNetwork: WINDOW_FLOOR1_LEFT The window or door is open during HVAC system operation error continues...
   *************  **   ~~~   **   This error occurred 228 total times;
   *************  **   ~~~   **   during Warmup 0 times;
   *************  **   ~~~   **   during Sizing 0 times.
   *************  **   ~~~   **   Max=0.5  Min=0.5
   *************
   *************
   ************* ===== Final Error Summary =====
   ************* The following error categories occurred.  Consider correcting or noting.
   ************* Nominally Unused Constructions
   ************* ..The nominally unused constructions warning is provided to alert you to potential conditions that can cause
   ************* ..extra time during simulation. Each construction is calculated by the algorithm indicated in the HeatBalanceAlgorithm
   ************* ..object. You may remove the constructions indicated (when you use the DisplayExtraWarnings option).
   *************
   ************* EnergyPlus Warmup Error Summary. During Warmup: 0 Warning; 0 Severe Errors.
   ************* EnergyPlus Sizing Error Summary. During Sizing: 3 Warning; 0 Severe Errors.
   ************* EnergyPlus Completed Successfully-- 934 Warning; 0 Severe Errors; Elapsed Time=00hr 02min 38.92sec
