Program Version,EnergyPlus, Version 22.2.0-c249759bad, YMD=2023.09.01 19:33,
   ************* Beginning Zone Sizing Calculations
   ** Warning ** ProcessScheduleInput: Schedule:Constant="ALWAYS ON DISCRETE", Schedule Type Limits Name="ONOFF" not found -- will not be validated
   ** Warning ** Foundation:Kiva="KIVA FOUNDATION", no Interior Horizontal Insulation Material Name defined
   **   ~~~   ** Interior Horizontal Insulation Depth will not be used.
   ** Warning ** CheckUsedConstructions: There are 15 nominally unused constructions in input.
   **   ~~~   ** Each Unused construction is shown.
   ************* Construction=INTERIOR FLOOR
   ************* Construction=INTERIOR WINDOW
   ************* Construction=EXTERIOR DOOR
   ************* Construction=INTERIOR DOOR
   ************* Construction=GABLE CONSTRUCTION
   ************* Construction=CRAWL_FLOOR
   ************* Construction=INSULATED PIPE
   ************* Construction=PLAIN PIPE
   ************* Construction=TDD PIPE
   ************* Construction=TDD DOME
   ************* Construction=TDD DIFFUSER
   ************* Construction=CRAWL WALL
   ************* Construction=CEILING-FLOOR-LAYER
   ************* Construction=SLAB CONSTRUCTION W FULL R10 INSULATION
   ************* Construction=SLAB CONSTRUCTION W FULL R5 INSULATION
   ** Warning ** GetDXCoils: Coil:Heating:DX:SingleSpeed="DX_HEATING_COIL" curve values
   **   ~~~   ** ... Defrost Energy Input Ratio Function of Temperature Curve Name = DEFROSTEIR output is not equal to 1.0 (+ or - 10%) at rated conditions.
   **   ~~~   ** ... Curve output at rated conditions = 0.152
   ************* Beginning System Sizing Calculations
   ************* Beginning Plant Sizing Calculations
   ** Warning ** Coil:WaterHeating:AirToWaterHeatPump:Wrapped "HEAT PUMP WATER HEATER EVAPORATOR": Rated air volume flow rate per watt of rated total water heating capacity is out of range
   **   ~~~   ** Min Rated Vol Flow Per Watt=[4.027E-005], Rated Vol Flow Per Watt=[1.510E-004], Max Rated Vol Flow Per Watt=[8.056E-005]. See Input-Output Reference Manual for valid range.
   ************* SizeFan: : Potential issue with equipment sizing for Fan:OnOff HEAT PUMP WATER HEATER FAN
   **   ~~~   ** User-Specified Maximum Flow Rate [m3/s] = 0.22653
   **   ~~~   ** differs from Design Size Maximum Flow Rate [m3/s] = 7.55250E-002
   **   ~~~   ** This may, or may not, indicate mismatched component sizes.
   **   ~~~   ** Verify that the value entered is intended and is consistent with other components.
   ** Warning ** Water heater = WATER HEATER TANK:  Recovery Efficiency and Energy Factor could not be calculated during the test for standard ratings
   **   ~~~   ** Setpoint was never recovered and/or heater never turned on
   ** Warning ** Check input. Pump nominal power or motor efficiency is set to 0, for pump=MAINS PRESSURE
   ** Warning ** Output:Meter: invalid Key Name="ELECTRIC_RANGE:INTERIOREQUIPMENT:ELECTRICITY" - not found.
   ** Warning ** Output:Meter: invalid Key Name="ELECTRIC_DRYER:INTERIOREQUIPMENT:ELECTRICITY" - not found.
   ** Warning ** Output:Meter: invalid Key Name="HEATRECOVERY:ELECTRICITY" - not found.
   ** Warning ** Output:Meter: invalid Key Name="HEATING:NATURALGAS" - not found.
   ** Warning ** Output:Meter: invalid Key Name="WATERSYSTEMS:NATURALGAS" - not found.
   ** Warning ** Output:Meter: invalid Key Name="PROPANE:FACILITY" - not found.
   ** Warning ** Output:Meter: invalid Key Name="HEATING:PROPANE" - not found.
   ************* Testing Individual Branch Integrity
   ************* All Branches passed integrity testing
   ************* Testing Individual Supply Air Path Integrity
   ************* All Supply Air Paths passed integrity testing
   ************* Testing Individual Return Air Path Integrity
   ************* All Return Air Paths passed integrity testing
   ************* No node connection errors were found.
   ************* Beginning Simulation
   ** Warning ** AirflowNetwork::Solver::validate_distribution: Heat pump water heater is simulated along with an AirflowNetwork but is not included in the AirflowNetwork.
   ** Warning ** CalcEquipmentFlowRates: "TOTAL HOT WATER LOAD" - Target water temperature is greater than the hot water temperature by (1.28 C)
   **   ~~~   **  Environment=EXTREME_WINTER, at Simulation time=01/20 06:00 - 06:15
   **   ~~~   ** ...target water temperature     = 53.33 C
   **   ~~~   ** ...hot water temperature        = 52.05 C
   **   ~~~   ** ...Target water temperature should be less than or equal to the hot water temperature. Verify temperature setpoints and schedules.
   ** Warning ** SimHVAC: Maximum iterations (20) exceeded for all HVAC loops, at ANNUAL, 01/19 19:00 - 19:15
   **   ~~~   ** The solution for one or more of the Air Loop HVAC systems did not appear to converge
   **   ~~~   ** Air System Named = CENTRAL SYSTEM did not converge for mass flow rate
   **   ~~~   ** Check values should be zero. Most Recent values listed first.
   **   ~~~   ** Demand-to-Supply interface mass flow rate check value iteration history trace: 7.429242E-002,7.429242E-002,7.429242E-002,7.429242E-002,7.429242E-002,7.429242E-002,7.429242E-002,7.429242E-002,7.429242E-002,7.429242E-002,
   **   ~~~   ** Supply-to-demand interface deck 1 mass flow rate check value iteration history trace: 7.429242E-002,7.429242E-002,7.429242E-002,7.429242E-002,7.429242E-002,7.429242E-002,7.429242E-002,7.429242E-002,7.429242E-002,7.429242E-002,
   **   ~~~   ** Air System Named = CENTRAL SYSTEM did not converge for energy
   **   ~~~   ** Check values should be zero. Most Recent values listed first.
   **   ~~~   ** Demand-to-Supply interface energy check value iteration history trace: 1472.326341,1472.326341,1472.326341,1472.326341,1472.326341,1472.326341,1472.326341,1472.326341,1472.326340,1472.326340,
   **   ~~~   ** Supply-to-demand interface deck 1 energy check value iteration history trace: 2557.474503,2557.474503,2557.474503,2557.474503,2557.474503,2557.474503,2557.474502,2557.474502,2557.474502,2557.474502,
   ** Warning ** SimHVAC: Maximum iterations (20) exceeded for all HVAC loops, at ANNUAL, 02/10 15:15 - 15:22
   **   ~~~   ** The solution for one or more of the Air Loop HVAC systems did not appear to converge
   **   ~~~   ** Air System Named = CENTRAL SYSTEM did not converge for mass flow rate
   **   ~~~   ** Check values should be zero. Most Recent values listed first.
   **   ~~~   ** Demand-to-Supply interface mass flow rate check value iteration history trace: 8.173385E-002,8.173385E-002,8.173385E-002,8.173385E-002,8.173385E-002,8.173385E-002,8.173385E-002,8.173385E-002,8.173385E-002,8.173385E-002,
   **   ~~~   ** Supply-to-demand interface deck 1 mass flow rate check value iteration history trace: 8.173385E-002,8.173385E-002,8.173385E-002,8.173385E-002,8.173385E-002,8.173385E-002,8.173385E-002,8.173385E-002,8.173385E-002,8.173385E-002,
   **   ~~~   ** Air System Named = CENTRAL SYSTEM did not converge for energy
   **   ~~~   ** Check values should be zero. Most Recent values listed first.
   **   ~~~   ** Demand-to-Supply interface energy check value iteration history trace: 1619.883922,1619.883922,1619.883922,1619.883921,1619.883921,1619.883921,1619.883921,1619.883921,1619.883921,1619.883921,
   **   ~~~   ** Supply-to-demand interface deck 1 energy check value iteration history trace: 2501.934116,2501.934116,2501.934116,2501.934116,2501.934115,2501.934115,2501.934115,2501.934115,2501.934115,2501.934115,
   ** Warning ** SimHVAC: Maximum iterations (20) exceeded for all HVAC loops, at ANNUAL, 03/08 19:00 - 19:15
   **   ~~~   ** The solution for one or more of the Air Loop HVAC systems did not appear to converge
   **   ~~~   ** Air System Named = CENTRAL SYSTEM did not converge for mass flow rate
   **   ~~~   ** Check values should be zero. Most Recent values listed first.
   **   ~~~   ** Demand-to-Supply interface mass flow rate check value iteration history trace: 8.027581E-002,8.027581E-002,8.027581E-002,8.027581E-002,8.027581E-002,8.027581E-002,8.027581E-002,8.027581E-002,8.027581E-002,8.027581E-002,
   **   ~~~   ** Supply-to-demand interface deck 1 mass flow rate check value iteration history trace: 8.027581E-002,8.027581E-002,8.027581E-002,8.027581E-002,8.027581E-002,8.027581E-002,8.027581E-002,8.027581E-002,8.027581E-002,8.027581E-002,
   **   ~~~   ** Air System Named = CENTRAL SYSTEM did not converge for energy
   **   ~~~   ** Check values should be zero. Most Recent values listed first.
   **   ~~~   ** Demand-to-Supply interface energy check value iteration history trace: 1593.396842,1593.396842,1593.396842,1593.396842,1593.396842,1593.396841,1593.396841,1593.396841,1593.396841,1593.396841,
   **   ~~~   ** Supply-to-demand interface deck 1 energy check value iteration history trace: 2516.554871,2516.554871,2516.554871,2516.554871,2516.554871,2516.554871,2516.554870,2516.554870,2516.554870,2516.554870,
   ** Warning ** SimHVAC: Maximum iterations (20) exceeded for all HVAC loops, at ANNUAL, 03/10 22:15 - 22:22
   **   ~~~   ** The solution for one or more of the Air Loop HVAC systems did not appear to converge
   **   ~~~   ** Air System Named = CENTRAL SYSTEM did not converge for mass flow rate
   **   ~~~   ** Check values should be zero. Most Recent values listed first.
   **   ~~~   ** Demand-to-Supply interface mass flow rate check value iteration history trace: 6.765823E-002,6.765823E-002,6.765823E-002,6.765823E-002,6.765823E-002,6.765823E-002,6.765823E-002,6.765823E-002,6.765823E-002,6.765823E-002,
   **   ~~~   ** Supply-to-demand interface deck 1 mass flow rate check value iteration history trace: 6.765823E-002,6.765823E-002,6.765823E-002,6.765823E-002,6.765823E-002,6.765823E-002,6.765823E-002,6.765823E-002,6.765823E-002,6.765823E-002,
   **   ~~~   ** Air System Named = CENTRAL SYSTEM did not converge for energy
   **   ~~~   ** Check values should be zero. Most Recent values listed first.
   **   ~~~   ** Demand-to-Supply interface energy check value iteration history trace: 1304.795190,1304.795190,1304.795190,1304.795190,1304.795190,1304.795189,1304.795189,1304.795189,1304.795189,1304.795189,
   **   ~~~   ** Supply-to-demand interface deck 1 energy check value iteration history trace: 2254.032141,2254.032141,2254.032141,2254.032141,2254.032141,2254.032141,2254.032141,2254.032141,2254.032140,2254.032140,
   ** Warning ** SimHVAC: Maximum iterations (20) exceeded for all HVAC loops, at ANNUAL, 04/01 20:15 - 20:30
   **   ~~~   ** The solution for one or more of the Air Loop HVAC systems did not appear to converge
   **   ~~~   ** Air System Named = CENTRAL SYSTEM did not converge for mass flow rate
   **   ~~~   ** Check values should be zero. Most Recent values listed first.
   **   ~~~   ** Demand-to-Supply interface mass flow rate check value iteration history trace: 6.755550E-002,6.755550E-002,6.755550E-002,6.755550E-002,6.755550E-002,6.755550E-002,6.755550E-002,6.755550E-002,6.755550E-002,6.755550E-002,
   **   ~~~   ** Supply-to-demand interface deck 1 mass flow rate check value iteration history trace: 6.755550E-002,6.755550E-002,6.755550E-002,6.755550E-002,6.755550E-002,6.755550E-002,6.755550E-002,6.755550E-002,6.755550E-002,6.755550E-002,
   **   ~~~   ** Air System Named = CENTRAL SYSTEM did not converge for energy
   **   ~~~   ** Check values should be zero. Most Recent values listed first.
   **   ~~~   ** Demand-to-Supply interface energy check value iteration history trace: 1337.180512,1337.180511,1337.180511,1337.180511,1337.180511,1337.180511,1337.180511,1337.180511,1337.180511,1337.180511,
   **   ~~~   ** Supply-to-demand interface deck 1 energy check value iteration history trace: 2289.330797,2289.330797,2289.330797,2289.330797,2289.330797,2289.330797,2289.330797,2289.330797,2289.330797,2289.330796,
   ** Warning ** SimHVAC: Maximum iterations (20) exceeded for all HVAC loops, at ANNUAL, 05/17 08:30 - 08:38
   **   ~~~   ** The solution for one or more of the Air Loop HVAC systems did not appear to converge
   **   ~~~   ** Air System Named = CENTRAL SYSTEM did not converge for mass flow rate
   **   ~~~   ** Check values should be zero. Most Recent values listed first.
   **   ~~~   ** Demand-to-Supply interface mass flow rate check value iteration history trace: 6.468658E-002,6.468658E-002,6.468658E-002,6.468658E-002,6.468658E-002,6.468658E-002,6.468658E-002,6.468658E-002,6.468658E-002,6.468658E-002,
   **   ~~~   ** Supply-to-demand interface deck 1 mass flow rate check value iteration history trace: 6.468658E-002,6.468658E-002,6.468658E-002,6.468658E-002,6.468658E-002,6.468658E-002,6.468658E-002,6.468658E-002,6.468658E-002,6.468658E-002,
   **   ~~~   ** Air System Named = CENTRAL SYSTEM did not converge for energy
   **   ~~~   ** Check values should be zero. Most Recent values listed first.
   **   ~~~   ** Demand-to-Supply interface energy check value iteration history trace: 1281.781926,1281.781926,1281.781925,1281.781925,1281.781925,1281.781925,1281.781925,1281.781925,1281.781925,1281.781925,
   **   ~~~   ** Supply-to-demand interface deck 1 energy check value iteration history trace: 2229.022781,2229.022781,2229.022781,2229.022781,2229.022780,2229.022780,2229.022780,2229.022780,2229.022780,2229.022780,
   ** Warning ** SimHVAC: Maximum iterations (20) exceeded for all HVAC loops, at ANNUAL, 06/08 05:08 - 05:15
   **   ~~~   ** The solution for one or more of the Air Loop HVAC systems did not appear to converge
   **   ~~~   ** Air System Named = CENTRAL SYSTEM did not converge for mass flow rate
   **   ~~~   ** Check values should be zero. Most Recent values listed first.
   **   ~~~   ** Demand-to-Supply interface mass flow rate check value iteration history trace: 0.148653,0.148653,0.148653,0.148653,0.148653,0.148653,0.148653,0.148653,0.148653,0.148653,
   **   ~~~   ** Supply-to-demand interface deck 1 mass flow rate check value iteration history trace: 0.148653,0.148653,0.148653,0.148653,0.148653,0.148653,0.148653,0.148653,0.148653,0.148653,
   **   ~~~   ** Air System Named = CENTRAL SYSTEM did not converge for energy
   **   ~~~   ** Check values should be zero. Most Recent values listed first.
   **   ~~~   ** Demand-to-Supply interface energy check value iteration history trace: 3615.902567,3615.902568,3615.902569,3615.902570,3615.902571,3615.902572,3615.902572,3615.902573,3615.902574,3615.902575,
   **   ~~~   ** Supply-to-demand interface deck 1 energy check value iteration history trace: 1844.212376,1844.212377,1844.212377,1844.212378,1844.212378,1844.212379,1844.212379,1844.212380,1844.212380,1844.212381,
   ** Warning ** SimHVAC: Maximum iterations (20) exceeded for all HVAC loops, at ANNUAL, 09/13 07:30 - 07:45
   **   ~~~   ** The solution for one or more of the Air Loop HVAC systems did not appear to converge
   **   ~~~   ** Air System Named = CENTRAL SYSTEM did not converge for mass flow rate
   **   ~~~   ** Check values should be zero. Most Recent values listed first.
   **   ~~~   ** Demand-to-Supply interface mass flow rate check value iteration history trace: 5.935126E-002,5.935126E-002,5.935126E-002,5.935126E-002,5.935126E-002,5.935126E-002,5.935126E-002,5.935126E-002,5.935126E-002,5.935126E-002,
   **   ~~~   ** Supply-to-demand interface deck 1 mass flow rate check value iteration history trace: 5.935126E-002,5.935126E-002,5.935126E-002,5.935126E-002,5.935126E-002,5.935126E-002,5.935126E-002,5.935126E-002,5.935126E-002,5.935126E-002,
   **   ~~~   ** Air System Named = CENTRAL SYSTEM did not converge for energy
   **   ~~~   ** Check values should be zero. Most Recent values listed first.
   **   ~~~   ** Demand-to-Supply interface energy check value iteration history trace: 1163.298816,1163.298816,1163.298816,1163.298816,1163.298816,1163.298816,1163.298816,1163.298816,1163.298816,1163.298816,
   **   ~~~   ** Supply-to-demand interface deck 1 energy check value iteration history trace: 2062.342668,2062.342668,2062.342668,2062.342668,2062.342668,2062.342668,2062.342668,2062.342668,2062.342667,2062.342667,
   ** Warning ** SimHVAC: Maximum iterations (20) exceeded for all HVAC loops, at ANNUAL, 10/08 11:23 - 11:26
   **   ~~~   ** The solution for one or more of the Air Loop HVAC systems did not appear to converge
   **   ~~~   ** Air System Named = CENTRAL SYSTEM did not converge for mass flow rate
   **   ~~~   ** Check values should be zero. Most Recent values listed first.
   **   ~~~   ** Demand-to-Supply interface mass flow rate check value iteration history trace: 4.890722E-002,4.890722E-002,4.890722E-002,4.890722E-002,4.890722E-002,4.890722E-002,4.890722E-002,4.890722E-002,4.890722E-002,4.890722E-002,
   **   ~~~   ** Supply-to-demand interface deck 1 mass flow rate check value iteration history trace: 4.890722E-002,4.890722E-002,4.890722E-002,4.890722E-002,4.890722E-002,4.890722E-002,4.890722E-002,4.890722E-002,4.890722E-002,4.890722E-002,
   **   ~~~   ** Air System Named = CENTRAL SYSTEM did not converge for energy
   **   ~~~   ** Check values should be zero. Most Recent values listed first.
   **   ~~~   ** Demand-to-Supply interface energy check value iteration history trace: 1149.595337,1149.595337,1149.595337,1149.595337,1149.595337,1149.595337,1149.595337,1149.595338,1149.595338,1149.595338,
   **   ~~~   ** Supply-to-demand interface deck 1 energy check value iteration history trace: 501.544683,501.544683,501.544683,501.544683,501.544684,501.544684,501.544684,501.544684,501.544684,501.544684,
   ** Warning ** SimHVAC: Maximum iterations (20) exceeded for all HVAC loops, at ANNUAL, 10/10 21:20 - 21:25
   **   ~~~   ** The solution for one or more of the Air Loop HVAC systems did not appear to converge
   **   ~~~   ** Air System Named = CENTRAL SYSTEM did not converge for mass flow rate
   **   ~~~   ** Check values should be zero. Most Recent values listed first.
   **   ~~~   ** Demand-to-Supply interface mass flow rate check value iteration history trace: 0.196964,0.196964,0.196964,0.196964,0.196964,0.196964,0.196964,0.196964,0.196964,0.196964,
   **   ~~~   ** Supply-to-demand interface deck 1 mass flow rate check value iteration history trace: 0.196964,0.196964,0.196964,0.196964,0.196964,0.196964,0.196964,0.196964,0.196964,0.196964,
   **   ~~~   ** Air System Named = CENTRAL SYSTEM did not converge for energy
   **   ~~~   ** Check values should be zero. Most Recent values listed first.
   **   ~~~   ** Demand-to-Supply interface energy check value iteration history trace: 4712.630124,4712.630124,4712.630124,4712.630124,4712.630125,4712.630125,4712.630125,4712.630125,4712.630126,4712.630126,
   **   ~~~   ** Supply-to-demand interface deck 1 energy check value iteration history trace: 1974.934301,1974.934301,1974.934301,1974.934301,1974.934301,1974.934301,1974.934301,1974.934301,1974.934302,1974.934302,
   ** Warning ** SimHVAC: Maximum iterations (20) exceeded for all HVAC loops, at ANNUAL, 10/11 21:08 - 21:15
   **   ~~~   ** The solution for one or more of the Air Loop HVAC systems did not appear to converge
   **   ~~~   ** Air System Named = CENTRAL SYSTEM did not converge for mass flow rate
   **   ~~~   ** Check values should be zero. Most Recent values listed first.
   **   ~~~   ** Demand-to-Supply interface mass flow rate check value iteration history trace: 8.026081E-002,8.026081E-002,8.026081E-002,8.026081E-002,8.026081E-002,8.026081E-002,8.026081E-002,8.026081E-002,8.026081E-002,8.026081E-002,
   **   ~~~   ** Supply-to-demand interface deck 1 mass flow rate check value iteration history trace: 8.026081E-002,8.026081E-002,8.026081E-002,8.026081E-002,8.026081E-002,8.026081E-002,8.026081E-002,8.026081E-002,8.026081E-002,8.026081E-002,
   **   ~~~   ** Air System Named = CENTRAL SYSTEM did not converge for energy
   **   ~~~   ** Check values should be zero. Most Recent values listed first.
   **   ~~~   ** Demand-to-Supply interface energy check value iteration history trace: 1886.527779,1886.527779,1886.527779,1886.527780,1886.527780,1886.527780,1886.527780,1886.527780,1886.527780,1886.527780,
   **   ~~~   ** Supply-to-demand interface deck 1 energy check value iteration history trace: 803.850159,803.850159,803.850159,803.850159,803.850159,803.850159,803.850159,803.850159,803.850159,803.850159,
   ** Warning ** SimHVAC: Maximum iterations (20) exceeded for all HVAC loops, at ANNUAL, 10/12 07:15 - 07:30
   **   ~~~   ** The solution for one or more of the Air Loop HVAC systems did not appear to converge
   **   ~~~   ** Air System Named = CENTRAL SYSTEM did not converge for mass flow rate
   **   ~~~   ** Check values should be zero. Most Recent values listed first.
   **   ~~~   ** Demand-to-Supply interface mass flow rate check value iteration history trace: 6.530909E-002,6.530909E-002,6.530909E-002,6.530909E-002,6.530909E-002,6.530909E-002,6.530909E-002,6.530909E-002,6.530909E-002,6.530909E-002,
   **   ~~~   ** Supply-to-demand interface deck 1 mass flow rate check value iteration history trace: 6.530909E-002,6.530909E-002,6.530909E-002,6.530909E-002,6.530909E-002,6.530909E-002,6.530909E-002,6.530909E-002,6.530909E-002,6.530909E-002,
   **   ~~~   ** Air System Named = CENTRAL SYSTEM did not converge for energy
   **   ~~~   ** Check values should be zero. Most Recent values listed first.
   **   ~~~   ** Demand-to-Supply interface energy check value iteration history trace: 1291.297642,1291.297642,1291.297642,1291.297642,1291.297642,1291.297642,1291.297641,1291.297641,1291.297641,1291.297641,
   **   ~~~   ** Supply-to-demand interface deck 1 energy check value iteration history trace: 2234.362678,2234.362678,2234.362678,2234.362678,2234.362678,2234.362678,2234.362678,2234.362678,2234.362678,2234.362677,
   ** Warning ** SimHVAC: Maximum iterations (20) exceeded for all HVAC loops, at ANNUAL, 10/14 20:00 - 20:15
   **   ~~~   ** The solution for one or more of the Air Loop HVAC systems did not appear to converge
   **   ~~~   ** Air System Named = CENTRAL SYSTEM did not converge for mass flow rate
   **   ~~~   ** Check values should be zero. Most Recent values listed first.
   **   ~~~   ** Demand-to-Supply interface mass flow rate check value iteration history trace: 6.056794E-002,6.056794E-002,6.056794E-002,6.056794E-002,6.056794E-002,6.056794E-002,6.056794E-002,6.056794E-002,6.056794E-002,6.056794E-002,
   **   ~~~   ** Supply-to-demand interface deck 1 mass flow rate check value iteration history trace: 6.056794E-002,6.056794E-002,6.056794E-002,6.056794E-002,6.056794E-002,6.056794E-002,6.056794E-002,6.056794E-002,6.056794E-002,6.056794E-002,
   **   ~~~   ** Air System Named = CENTRAL SYSTEM did not converge for energy
   **   ~~~   ** Check values should be zero. Most Recent values listed first.
   **   ~~~   ** Demand-to-Supply interface energy check value iteration history trace: 1402.219759,1402.219759,1402.219759,1402.219759,1402.219760,1402.219760,1402.219760,1402.219760,1402.219761,1402.219761,
   **   ~~~   ** Supply-to-demand interface deck 1 energy check value iteration history trace: 697.018263,697.018263,697.018263,697.018263,697.018263,697.018264,697.018264,697.018264,697.018264,697.018264,
   ** Warning ** SimHVAC: Maximum iterations (20) exceeded for all HVAC loops, at ANNUAL, 11/04 18:00 - 18:15
   **   ~~~   ** The solution for one or more of the Air Loop HVAC systems did not appear to converge
   **   ~~~   ** Air System Named = CENTRAL SYSTEM did not converge for mass flow rate
   **   ~~~   ** Check values should be zero. Most Recent values listed first.
   **   ~~~   ** Demand-to-Supply interface mass flow rate check value iteration history trace: 6.444505E-002,6.444505E-002,6.444505E-002,6.444505E-002,6.444505E-002,6.444505E-002,6.444505E-002,6.444505E-002,6.444505E-002,6.444505E-002,
   **   ~~~   ** Supply-to-demand interface deck 1 mass flow rate check value iteration history trace: 6.444505E-002,6.444505E-002,6.444505E-002,6.444505E-002,6.444505E-002,6.444505E-002,6.444505E-002,6.444505E-002,6.444505E-002,6.444505E-002,
   **   ~~~   ** Air System Named = CENTRAL SYSTEM did not converge for energy
   **   ~~~   ** Check values should be zero. Most Recent values listed first.
   **   ~~~   ** Demand-to-Supply interface energy check value iteration history trace: 1276.889193,1276.889193,1276.889193,1276.889193,1276.889193,1276.889192,1276.889192,1276.889192,1276.889192,1276.889192,
   **   ~~~   ** Supply-to-demand interface deck 1 energy check value iteration history trace: 2183.339499,2183.339499,2183.339499,2183.339499,2183.339499,2183.339499,2183.339499,2183.339499,2183.339498,2183.339498,
   ************* Simulation Error Summary *************
   ** Warning ** The following Report Variables were requested but not generated -- check.rdd file
   **   ~~~   ** Either the IDF did not contain these elements, the variable name is misspelled,
   **   ~~~   ** or the requested variable is an advanced output which requires Output : Diagnostics, DisplayAdvancedReportVariables;
   ************* Key=*, VarName=BASEBOARD TOTAL HEATING ENERGY, Frequency=
   ************* Key=*, VarName=WATER HEATER NATURALGAS ENERGY, Frequency=
   ************* Key=*, VarName=COOLING COIL TOTAL HEATING ENERGY, Frequency=
   ************* There are 34 unused schedules in input.
   ************* There are 388 unused week schedules in input.
   ************* There are 396 unused day schedules in input.
   ************* Use Output:Diagnostics,DisplayUnusedSchedules; to see them.
   *************
   ************* ===== Recurring Error Summary =====
   ************* The following recurring error messages occurred.
   *************
   *************  ** Warning ** "TOTAL HOT WATER LOAD" - Target water temperature should be less than or equal to the hot water temperature error continues...
   *************  **   ~~~   **   This error occurred 112543 total times;
   *************  **   ~~~   **   during Warmup 0 times;
   *************  **   ~~~   **   during Sizing 0 times.
   *************  **   ~~~   **   Max=10.226879  Min=9.052160E-004
   *************
   *************  ** Warning ** SimHVAC: Exceeding Maximum iterations for all HVAC loops, during ANNUAL continues
   *************  **   ~~~   **   This error occurred 5 total times;
   *************  **   ~~~   **   during Warmup 0 times;
   *************  **   ~~~   **   during Sizing 0 times.
   *************
   *************
   ************* ===== Final Error Summary =====
   ************* The following error categories occurred.  Consider correcting or noting.
   ************* Nominally Unused Constructions
   ************* ..The nominally unused constructions warning is provided to alert you to potential conditions that can cause
   ************* ..extra time during simulation. Each construction is calculated by the algorithm indicated in the HeatBalanceAlgorithm
   ************* ..object. You may remove the constructions indicated (when you use the DisplayExtraWarnings option).
   *************
   ************* EnergyPlus Warmup Error Summary. During Warmup: 1 Warning; 0 Severe Errors.
   ************* EnergyPlus Sizing Error Summary. During Sizing: 4 Warning; 0 Severe Errors.
   ************* EnergyPlus Completed Successfully-- 112579 Warning; 0 Severe Errors; Elapsed Time=00hr 01min 28.36sec
