Program Version,EnergyPlus, Version 22.2.0-c249759bad, YMD=2023.09.01 19:02,
   ************* Beginning Zone Sizing Calculations
   ** Warning ** ProcessScheduleInput: Schedule:Constant="ALWAYS ON DISCRETE", Schedule Type Limits Name="ONOFF" not found -- will not be validated
   ** Warning ** Foundation:Kiva="KIVA FOUNDATION", no Interior Horizontal Insulation Material Name defined
   **   ~~~   ** Interior Horizontal Insulation Depth will not be used.
   ** Warning ** CheckUsedConstructions: There are 15 nominally unused constructions in input.
   **   ~~~   ** Each Unused construction is shown.
   ************* Construction=INTERIOR FLOOR
   ************* Construction=INTERIOR WINDOW
   ************* Construction=EXTERIOR DOOR
   ************* Construction=INTERIOR DOOR
   ************* Construction=GABLE CONSTRUCTION
   ************* Construction=CRAWL_FLOOR
   ************* Construction=INSULATED PIPE
   ************* Construction=PLAIN PIPE
   ************* Construction=TDD PIPE
   ************* Construction=TDD DOME
   ************* Construction=TDD DIFFUSER
   ************* Construction=CRAWL WALL
   ************* Construction=CEILING-FLOOR-LAYER
   ************* Construction=SLAB CONSTRUCTION W FULL R10 INSULATION
   ************* Construction=SLAB CONSTRUCTION W FULL R5 INSULATION
   ** Warning ** GetDXCoils: Coil:Heating:DX:SingleSpeed="DX_HEATING_COIL" curve values
   **   ~~~   ** ... Defrost Energy Input Ratio Function of Temperature Curve Name = DEFROSTEIR output is not equal to 1.0 (+ or - 10%) at rated conditions.
   **   ~~~   ** ... Curve output at rated conditions = 0.152
   ************* Beginning System Sizing Calculations
   ************* Beginning Plant Sizing Calculations
   ** Warning ** Coil:WaterHeating:AirToWaterHeatPump:Wrapped "HEAT PUMP WATER HEATER EVAPORATOR": Rated air volume flow rate per watt of rated total water heating capacity is out of range
   **   ~~~   ** Min Rated Vol Flow Per Watt=[4.027E-005], Rated Vol Flow Per Watt=[1.510E-004], Max Rated Vol Flow Per Watt=[8.056E-005]. See Input-Output Reference Manual for valid range.
   ************* SizeFan: : Potential issue with equipment sizing for Fan:OnOff HEAT PUMP WATER HEATER FAN
   **   ~~~   ** User-Specified Maximum Flow Rate [m3/s] = 0.22653
   **   ~~~   ** differs from Design Size Maximum Flow Rate [m3/s] = 7.55250E-002
   **   ~~~   ** This may, or may not, indicate mismatched component sizes.
   **   ~~~   ** Verify that the value entered is intended and is consistent with other components.
   ** Warning ** Water heater = WATER HEATER TANK:  Recovery Efficiency and Energy Factor could not be calculated during the test for standard ratings
   **   ~~~   ** Setpoint was never recovered and/or heater never turned on
   ** Warning ** Check input. Pump nominal power or motor efficiency is set to 0, for pump=MAINS PRESSURE
   ** Warning ** Output:Meter: invalid Key Name="ELECTRIC_RANGE:INTERIOREQUIPMENT:ELECTRICITY" - not found.
   ** Warning ** Output:Meter: invalid Key Name="ELECTRIC_DRYER:INTERIOREQUIPMENT:ELECTRICITY" - not found.
   ** Warning ** Output:Meter: invalid Key Name="HEATRECOVERY:ELECTRICITY" - not found.
   ** Warning ** Output:Meter: invalid Key Name="HEATING:NATURALGAS" - not found.
   ** Warning ** Output:Meter: invalid Key Name="WATERSYSTEMS:NATURALGAS" - not found.
   ** Warning ** Output:Meter: invalid Key Name="PROPANE:FACILITY" - not found.
   ** Warning ** Output:Meter: invalid Key Name="HEATING:PROPANE" - not found.
   ************* Testing Individual Branch Integrity
   ************* All Branches passed integrity testing
   ************* Testing Individual Supply Air Path Integrity
   ************* All Supply Air Paths passed integrity testing
   ************* Testing Individual Return Air Path Integrity
   ************* All Return Air Paths passed integrity testing
   ************* No node connection errors were found.
   ************* Beginning Simulation
   ** Warning ** AirflowNetwork::Solver::validate_distribution: Heat pump water heater is simulated along with an AirflowNetwork but is not included in the AirflowNetwork.
   ** Warning ** CalcEquipmentFlowRates: "TOTAL HOT WATER LOAD" - Target water temperature is greater than the hot water temperature by (2.58 C)
   **   ~~~   **  Environment=EXTREME_WINTER, at Simulation time=01/27 03:45 - 04:00
   **   ~~~   ** ...target water temperature     = 53.33 C
   **   ~~~   ** ...hot water temperature        = 50.75 C
   **   ~~~   ** ...Target water temperature should be less than or equal to the hot water temperature. Verify temperature setpoints and schedules.
   ** Warning ** SimHVAC: Maximum iterations (20) exceeded for all HVAC loops, at ANNUAL, 03/14 12:15 - 12:30
   **   ~~~   ** The solution for one or more of the Air Loop HVAC systems did not appear to converge
   **   ~~~   ** Air System Named = CENTRAL SYSTEM did not converge for mass flow rate
   **   ~~~   ** Check values should be zero. Most Recent values listed first.
   **   ~~~   ** Demand-to-Supply interface mass flow rate check value iteration history trace: 4.700243E-002,4.700243E-002,4.700243E-002,4.700243E-002,4.700243E-002,4.700243E-002,4.700243E-002,4.700243E-002,4.700243E-002,4.700243E-002,
   **   ~~~   ** Supply-to-demand interface deck 1 mass flow rate check value iteration history trace: 4.700243E-002,4.700243E-002,4.700243E-002,4.700243E-002,4.700243E-002,4.700243E-002,4.700243E-002,4.700243E-002,4.700243E-002,4.700243E-002,
   **   ~~~   ** Air System Named = CENTRAL SYSTEM did not converge for energy
   **   ~~~   ** Check values should be zero. Most Recent values listed first.
   **   ~~~   ** Demand-to-Supply interface energy check value iteration history trace: 931.405817,931.405817,931.405816,931.405816,931.405816,931.405816,931.405816,931.405816,931.405815,931.405815,
   **   ~~~   ** Supply-to-demand interface deck 1 energy check value iteration history trace: 1763.959273,1763.959273,1763.959272,1763.959272,1763.959272,1763.959271,1763.959271,1763.959271,1763.959270,1763.959270,
   **   ~~~   ** Node named ZONE INLET NODE shows oscillating temperatures across iterations with a repeated value of 37.348202
   **   ~~~   ** Node named ZONE INLET NODE temperature [C] iteration history trace (most recent first): 37.348202,37.348202,37.348201,37.348201,37.348201,37.348200,37.348200,37.348200,37.348200,37.348199,
   ** Warning ** SimHVAC: Maximum iterations (20) exceeded for all HVAC loops, at ANNUAL, 03/27 19:00 - 19:05
   **   ~~~   ** The solution for one or more of the Air Loop HVAC systems did not appear to converge
   **   ~~~   ** Air System Named = CENTRAL SYSTEM did not converge for mass flow rate
   **   ~~~   ** Check values should be zero. Most Recent values listed first.
   **   ~~~   ** Demand-to-Supply interface mass flow rate check value iteration history trace: 8.099215E-002,8.099215E-002,8.099215E-002,8.099215E-002,8.099215E-002,8.099215E-002,8.099215E-002,8.099215E-002,8.099215E-002,8.099215E-002,
   **   ~~~   ** Supply-to-demand interface deck 1 mass flow rate check value iteration history trace: 8.099215E-002,8.099215E-002,8.099215E-002,8.099215E-002,8.099215E-002,8.099215E-002,8.099215E-002,8.099215E-002,8.099215E-002,8.099215E-002,
   **   ~~~   ** Air System Named = CENTRAL SYSTEM did not converge for energy
   **   ~~~   ** Check values should be zero. Most Recent values listed first.
   **   ~~~   ** Demand-to-Supply interface energy check value iteration history trace: 1598.193282,1598.193282,1598.193282,1598.193282,1598.193282,1598.193282,1598.193282,1598.193282,1598.193282,1598.193281,
   **   ~~~   ** Supply-to-demand interface deck 1 energy check value iteration history trace: 2541.574315,2541.574315,2541.574314,2541.574314,2541.574314,2541.574314,2541.574314,2541.574314,2541.574313,2541.574313,
   ** Warning ** SimHVAC: Maximum iterations (20) exceeded for all HVAC loops, at ANNUAL, 03/28 20:38 - 20:45
   **   ~~~   ** The solution for one or more of the Air Loop HVAC systems did not appear to converge
   **   ~~~   ** Air System Named = CENTRAL SYSTEM did not converge for mass flow rate
   **   ~~~   ** Check values should be zero. Most Recent values listed first.
   **   ~~~   ** Demand-to-Supply interface mass flow rate check value iteration history trace: 5.555569E-002,5.555569E-002,5.555569E-002,5.555569E-002,5.555569E-002,5.555569E-002,5.555569E-002,5.555569E-002,5.555569E-002,5.555569E-002,
   **   ~~~   ** Supply-to-demand interface deck 1 mass flow rate check value iteration history trace: 5.555569E-002,5.555569E-002,5.555569E-002,5.555569E-002,5.555569E-002,5.555569E-002,5.555569E-002,5.555569E-002,5.555569E-002,5.555569E-002,
   **   ~~~   ** Air System Named = CENTRAL SYSTEM did not converge for energy
   **   ~~~   ** Check values should be zero. Most Recent values listed first.
   **   ~~~   ** Demand-to-Supply interface energy check value iteration history trace: 1100.126198,1100.126198,1100.126197,1100.126197,1100.126197,1100.126197,1100.126197,1100.126197,1100.126197,1100.126197,
   **   ~~~   ** Supply-to-demand interface deck 1 energy check value iteration history trace: 1724.718681,1724.718681,1724.718681,1724.718681,1724.718681,1724.718681,1724.718680,1724.718680,1724.718680,1724.718680,
   ** Warning ** SimHVAC: Maximum iterations (20) exceeded for all HVAC loops, at ANNUAL, 05/02 03:00 - 03:15
   **   ~~~   ** The solution for one or more of the Air Loop HVAC systems did not appear to converge
   **   ~~~   ** Air System Named = CENTRAL SYSTEM did not converge for mass flow rate
   **   ~~~   ** Check values should be zero. Most Recent values listed first.
   **   ~~~   ** Demand-to-Supply interface mass flow rate check value iteration history trace: 6.438973E-002,6.438973E-002,6.438973E-002,6.438973E-002,6.438973E-002,6.438973E-002,6.438973E-002,6.438973E-002,6.438973E-002,6.438973E-002,
   **   ~~~   ** Supply-to-demand interface deck 1 mass flow rate check value iteration history trace: 6.438973E-002,6.438973E-002,6.438973E-002,6.438973E-002,6.438973E-002,6.438973E-002,6.438973E-002,6.438973E-002,6.438973E-002,6.438973E-002,
   **   ~~~   ** Air System Named = CENTRAL SYSTEM did not converge for energy
   **   ~~~   ** Check values should be zero. Most Recent values listed first.
   **   ~~~   ** Demand-to-Supply interface energy check value iteration history trace: 1193.451307,1193.451307,1193.451307,1193.451307,1193.451307,1193.451307,1193.451307,1193.451306,1193.451306,1193.451306,
   **   ~~~   ** Supply-to-demand interface deck 1 energy check value iteration history trace: 2027.685083,2027.685083,2027.685083,2027.685082,2027.685082,2027.685082,2027.685082,2027.685082,2027.685082,2027.685082,
   ** Warning ** SimHVAC: Maximum iterations (20) exceeded for all HVAC loops, at ANNUAL, 09/15 13:10 - 13:15
   **   ~~~   ** The solution for one or more of the Air Loop HVAC systems did not appear to converge
   **   ~~~   ** Air System Named = CENTRAL SYSTEM did not converge for mass flow rate
   **   ~~~   ** Check values should be zero. Most Recent values listed first.
   **   ~~~   ** Demand-to-Supply interface mass flow rate check value iteration history trace: 0.299092,0.299092,0.299092,0.299092,0.299092,0.299092,0.299092,0.299092,0.299092,0.299092,
   **   ~~~   ** Supply-to-demand interface deck 1 mass flow rate check value iteration history trace: 0.299092,0.299092,0.299092,0.299092,0.299092,0.299092,0.299092,0.299092,0.299092,0.299092,
   **   ~~~   ** Air System Named = CENTRAL SYSTEM did not converge for energy
   **   ~~~   ** Check values should be zero. Most Recent values listed first.
   **   ~~~   ** Demand-to-Supply interface energy check value iteration history trace: 7253.717747,7253.717747,7253.717747,7253.717748,7253.717748,7253.717749,7253.717749,7253.717750,7253.717750,7253.717750,
   **   ~~~   ** Supply-to-demand interface deck 1 energy check value iteration history trace: 2437.841388,2437.841388,2437.841388,2437.841388,2437.841388,2437.841388,2437.841389,2437.841389,2437.841389,2437.841389,
   ** Warning ** SimHVAC: Maximum iterations (20) exceeded for all HVAC loops, at ANNUAL, 10/03 11:11 - 11:15
   **   ~~~   ** The solution for one or more of the Air Loop HVAC systems did not appear to converge
   **   ~~~   ** Air System Named = CENTRAL SYSTEM did not converge for mass flow rate
   **   ~~~   ** Check values should be zero. Most Recent values listed first.
   **   ~~~   ** Demand-to-Supply interface mass flow rate check value iteration history trace: 0.163974,0.163974,0.163974,0.163974,0.163974,0.163974,0.163974,0.163974,0.163974,0.163974,
   **   ~~~   ** Supply-to-demand interface deck 1 mass flow rate check value iteration history trace: 0.163974,0.163974,0.163974,0.163974,0.163974,0.163974,0.163974,0.163974,0.163974,0.163974,
   **   ~~~   ** Air System Named = CENTRAL SYSTEM did not converge for energy
   **   ~~~   ** Check values should be zero. Most Recent values listed first.
   **   ~~~   ** Demand-to-Supply interface energy check value iteration history trace: 3941.825898,3941.825898,3941.825899,3941.825899,3941.825900,3941.825900,3941.825901,3941.825901,3941.825902,3941.825902,
   **   ~~~   ** Supply-to-demand interface deck 1 energy check value iteration history trace: 1209.354786,1209.354786,1209.354786,1209.354786,1209.354786,1209.354786,1209.354787,1209.354787,1209.354787,1209.354787,
   ** Warning ** SimHVAC: Maximum iterations (20) exceeded for all HVAC loops, at ANNUAL, 10/07 10:45 - 11:00
   **   ~~~   ** The solution for one or more of the Air Loop HVAC systems did not appear to converge
   **   ~~~   ** Air System Named = CENTRAL SYSTEM did not converge for mass flow rate
   **   ~~~   ** Check values should be zero. Most Recent values listed first.
   **   ~~~   ** Demand-to-Supply interface mass flow rate check value iteration history trace: 0.130571,0.130571,0.130571,0.130571,0.130571,0.130571,0.130571,0.130571,0.130571,0.130571,
   **   ~~~   ** Supply-to-demand interface deck 1 mass flow rate check value iteration history trace: 0.130571,0.130571,0.130571,0.130571,0.130571,0.130571,0.130571,0.130571,0.130571,0.130571,
   **   ~~~   ** Air System Named = CENTRAL SYSTEM did not converge for energy
   **   ~~~   ** Check values should be zero. Most Recent values listed first.
   **   ~~~   ** Demand-to-Supply interface energy check value iteration history trace: 3122.526379,3122.526379,3122.526379,3122.526380,3122.526380,3122.526380,3122.526380,3122.526381,3122.526381,3122.526381,
   **   ~~~   ** Supply-to-demand interface deck 1 energy check value iteration history trace: 1523.910772,1523.910772,1523.910772,1523.910772,1523.910773,1523.910773,1523.910773,1523.910773,1523.910773,1523.910773,
   ** Warning ** SimHVAC: Maximum iterations (20) exceeded for all HVAC loops, at ANNUAL, 10/08 20:55 - 21:00
   **   ~~~   ** The solution for one or more of the Air Loop HVAC systems did not appear to converge
   **   ~~~   ** Air System Named = CENTRAL SYSTEM did not converge for mass flow rate
   **   ~~~   ** Check values should be zero. Most Recent values listed first.
   **   ~~~   ** Demand-to-Supply interface mass flow rate check value iteration history trace: 0.191296,0.191296,0.191296,0.191296,0.191296,0.191296,0.191296,0.191296,0.191296,0.191296,
   **   ~~~   ** Supply-to-demand interface deck 1 mass flow rate check value iteration history trace: 0.191296,0.191296,0.191296,0.191296,0.191296,0.191296,0.191296,0.191296,0.191296,0.191296,
   **   ~~~   ** Air System Named = CENTRAL SYSTEM did not converge for energy
   **   ~~~   ** Check values should be zero. Most Recent values listed first.
   **   ~~~   ** Demand-to-Supply interface energy check value iteration history trace: 4611.871758,4611.871758,4611.871759,4611.871759,4611.871759,4611.871759,4611.871760,4611.871760,4611.871760,4611.871760,
   **   ~~~   ** Supply-to-demand interface deck 1 energy check value iteration history trace: 1251.163877,1251.163877,1251.163877,1251.163877,1251.163877,1251.163877,1251.163877,1251.163877,1251.163878,1251.163878,
   ** Warning ** SimHVAC: Maximum iterations (20) exceeded for all HVAC loops, at ANNUAL, 10/09 07:30 - 07:45
   **   ~~~   ** The solution for one or more of the Air Loop HVAC systems did not appear to converge
   **   ~~~   ** Air System Named = CENTRAL SYSTEM did not converge for mass flow rate
   **   ~~~   ** Check values should be zero. Most Recent values listed first.
   **   ~~~   ** Demand-to-Supply interface mass flow rate check value iteration history trace: 5.355014E-002,5.355014E-002,5.355014E-002,5.355014E-002,5.355014E-002,5.355014E-002,5.355014E-002,5.355014E-002,5.355014E-002,5.355014E-002,
   **   ~~~   ** Supply-to-demand interface deck 1 mass flow rate check value iteration history trace: 5.355014E-002,5.355014E-002,5.355014E-002,5.355014E-002,5.355014E-002,5.355014E-002,5.355014E-002,5.355014E-002,5.355014E-002,5.355014E-002,
   **   ~~~   ** Air System Named = CENTRAL SYSTEM did not converge for energy
   **   ~~~   ** Check values should be zero. Most Recent values listed first.
   **   ~~~   ** Demand-to-Supply interface energy check value iteration history trace: 1061.065767,1061.065767,1061.065767,1061.065767,1061.065767,1061.065767,1061.065767,1061.065767,1061.065767,1061.065767,
   **   ~~~   ** Supply-to-demand interface deck 1 energy check value iteration history trace: 2007.269378,2007.269378,2007.269378,2007.269378,2007.269378,2007.269378,2007.269378,2007.269378,2007.269378,2007.269378,
   ** Warning ** SimHVAC: Maximum iterations (20) exceeded for all HVAC loops, at ANNUAL, 10/26 09:00 - 09:15
   **   ~~~   ** The solution for one or more of the Air Loop HVAC systems did not appear to converge
   **   ~~~   ** Air System Named = CENTRAL SYSTEM did not converge for mass flow rate
   **   ~~~   ** Check values should be zero. Most Recent values listed first.
   **   ~~~   ** Demand-to-Supply interface mass flow rate check value iteration history trace: 5.504982E-002,5.504982E-002,5.504982E-002,5.504982E-002,5.504982E-002,5.504982E-002,5.504982E-002,5.504982E-002,5.504982E-002,5.504982E-002,
   **   ~~~   ** Supply-to-demand interface deck 1 mass flow rate check value iteration history trace: 5.504982E-002,5.504982E-002,5.504982E-002,5.504982E-002,5.504982E-002,5.504982E-002,5.504982E-002,5.504982E-002,5.504982E-002,5.504982E-002,
   **   ~~~   ** Air System Named = CENTRAL SYSTEM did not converge for energy
   **   ~~~   ** Check values should be zero. Most Recent values listed first.
   **   ~~~   ** Demand-to-Supply interface energy check value iteration history trace: 1090.879065,1090.879065,1090.879065,1090.879065,1090.879065,1090.879065,1090.879065,1090.879065,1090.879065,1090.879065,
   **   ~~~   ** Supply-to-demand interface deck 1 energy check value iteration history trace: 2000.333291,2000.333291,2000.333291,2000.333291,2000.333291,2000.333291,2000.333290,2000.333290,2000.333290,2000.333290,
   ** Warning ** SimHVAC: Maximum iterations (20) exceeded for all HVAC loops, at ANNUAL, 11/17 19:30 - 19:45
   **   ~~~   ** The solution for one or more of the Air Loop HVAC systems did not appear to converge
   **   ~~~   ** Air System Named = CENTRAL SYSTEM did not converge for mass flow rate
   **   ~~~   ** Check values should be zero. Most Recent values listed first.
   **   ~~~   ** Demand-to-Supply interface mass flow rate check value iteration history trace: 5.091932E-002,5.091932E-002,5.091932E-002,5.091932E-002,5.091932E-002,5.091932E-002,5.091932E-002,5.091932E-002,5.091932E-002,5.091932E-002,
   **   ~~~   ** Supply-to-demand interface deck 1 mass flow rate check value iteration history trace: 5.091932E-002,5.091932E-002,5.091932E-002,5.091932E-002,5.091932E-002,5.091932E-002,5.091932E-002,5.091932E-002,5.091932E-002,5.091932E-002,
   **   ~~~   ** Air System Named = CENTRAL SYSTEM did not converge for energy
   **   ~~~   ** Check values should be zero. Most Recent values listed first.
   **   ~~~   ** Demand-to-Supply interface energy check value iteration history trace: 1008.990857,1008.990857,1008.990857,1008.990857,1008.990857,1008.990857,1008.990857,1008.990857,1008.990857,1008.990857,
   **   ~~~   ** Supply-to-demand interface deck 1 energy check value iteration history trace: 1844.107354,1844.107354,1844.107354,1844.107354,1844.107354,1844.107354,1844.107354,1844.107354,1844.107354,1844.107354,
   **   ~~~   ** Node named ZONE INLET NODE shows oscillating temperatures across iterations with a repeated value of 36.041676
   **   ~~~   ** Node named ZONE INLET NODE temperature [C] iteration history trace (most recent first): 36.041676,36.041676,36.041676,36.041676,36.041675,36.041675,36.041675,36.041675,36.041674,36.041674,
   ************* Simulation Error Summary *************
   ** Warning ** The following Report Variables were requested but not generated -- check.rdd file
   **   ~~~   ** Either the IDF did not contain these elements, the variable name is misspelled,
   **   ~~~   ** or the requested variable is an advanced output which requires Output : Diagnostics, DisplayAdvancedReportVariables;
   ************* Key=*, VarName=BASEBOARD TOTAL HEATING ENERGY, Frequency=
   ************* Key=*, VarName=WATER HEATER NATURALGAS ENERGY, Frequency=
   ************* Key=*, VarName=COOLING COIL TOTAL HEATING ENERGY, Frequency=
   ************* There are 34 unused schedules in input.
   ************* There are 388 unused week schedules in input.
   ************* There are 396 unused day schedules in input.
   ************* Use Output:Diagnostics,DisplayUnusedSchedules; to see them.
   *************
   ************* ===== Recurring Error Summary =====
   ************* The following recurring error messages occurred.
   *************
   *************  ** Warning ** "TOTAL HOT WATER LOAD" - Target water temperature should be less than or equal to the hot water temperature error continues...
   *************  **   ~~~   **   This error occurred 50261 total times;
   *************  **   ~~~   **   during Warmup 0 times;
   *************  **   ~~~   **   during Sizing 0 times.
   *************  **   ~~~   **   Max=6.892959  Min=7.119653E-005
   *************
   *************
   ************* ===== Final Error Summary =====
   ************* The following error categories occurred.  Consider correcting or noting.
   ************* Nominally Unused Constructions
   ************* ..The nominally unused constructions warning is provided to alert you to potential conditions that can cause
   ************* ..extra time during simulation. Each construction is calculated by the algorithm indicated in the HeatBalanceAlgorithm
   ************* ..object. You may remove the constructions indicated (when you use the DisplayExtraWarnings option).
   *************
   ************* EnergyPlus Warmup Error Summary. During Warmup: 1 Warning; 0 Severe Errors.
   ************* EnergyPlus Sizing Error Summary. During Sizing: 4 Warning; 0 Severe Errors.
   ************* EnergyPlus Completed Successfully-- 50289 Warning; 0 Severe Errors; Elapsed Time=00hr 01min 27.69sec
