Program Version,EnergyPlus, Version 22.2.0-c249759bad, YMD=2023.09.01 19:35,
   ************* Beginning Zone Sizing Calculations
   ** Warning ** ProcessScheduleInput: Schedule:Constant="ALWAYS ON DISCRETE", Schedule Type Limits Name="ONOFF" not found -- will not be validated
   ** Warning ** Foundation:Kiva="KIVA FOUNDATION", no Interior Horizontal Insulation Material Name defined
   **   ~~~   ** Interior Horizontal Insulation Depth will not be used.
   ** Warning ** CheckUsedConstructions: There are 15 nominally unused constructions in input.
   **   ~~~   ** Each Unused construction is shown.
   ************* Construction=INTERIOR FLOOR
   ************* Construction=INTERIOR WINDOW
   ************* Construction=EXTERIOR DOOR
   ************* Construction=INTERIOR DOOR
   ************* Construction=GABLE CONSTRUCTION
   ************* Construction=CRAWL_FLOOR
   ************* Construction=INSULATED PIPE
   ************* Construction=PLAIN PIPE
   ************* Construction=TDD PIPE
   ************* Construction=TDD DOME
   ************* Construction=TDD DIFFUSER
   ************* Construction=CRAWL WALL
   ************* Construction=CEILING-FLOOR-LAYER
   ************* Construction=SLAB CONSTRUCTION W FULL R10 INSULATION
   ************* Construction=SLAB CONSTRUCTION W FULL R5 INSULATION
   ** Warning ** GetDXCoils: Coil:Heating:DX:SingleSpeed="DX_HEATING_COIL" curve values
   **   ~~~   ** ... Defrost Energy Input Ratio Function of Temperature Curve Name = DEFROSTEIR output is not equal to 1.0 (+ or - 10%) at rated conditions.
   **   ~~~   ** ... Curve output at rated conditions = 0.152
   ************* Beginning System Sizing Calculations
   ************* Beginning Plant Sizing Calculations
   ** Warning ** Coil:WaterHeating:AirToWaterHeatPump:Wrapped "HEAT PUMP WATER HEATER EVAPORATOR": Rated air volume flow rate per watt of rated total water heating capacity is out of range
   **   ~~~   ** Min Rated Vol Flow Per Watt=[4.027E-005], Rated Vol Flow Per Watt=[1.510E-004], Max Rated Vol Flow Per Watt=[8.056E-005]. See Input-Output Reference Manual for valid range.
   ************* SizeFan: : Potential issue with equipment sizing for Fan:OnOff HEAT PUMP WATER HEATER FAN
   **   ~~~   ** User-Specified Maximum Flow Rate [m3/s] = 0.22653
   **   ~~~   ** differs from Design Size Maximum Flow Rate [m3/s] = 7.55250E-002
   **   ~~~   ** This may, or may not, indicate mismatched component sizes.
   **   ~~~   ** Verify that the value entered is intended and is consistent with other components.
   ** Warning ** Water heater = WATER HEATER TANK:  Recovery Efficiency and Energy Factor could not be calculated during the test for standard ratings
   **   ~~~   ** Setpoint was never recovered and/or heater never turned on
   ** Warning ** Check input. Pump nominal power or motor efficiency is set to 0, for pump=MAINS PRESSURE
   ** Warning ** Output:Meter: invalid Key Name="ELECTRIC_RANGE:INTERIOREQUIPMENT:ELECTRICITY" - not found.
   ** Warning ** Output:Meter: invalid Key Name="ELECTRIC_DRYER:INTERIOREQUIPMENT:ELECTRICITY" - not found.
   ** Warning ** Output:Meter: invalid Key Name="HEATRECOVERY:ELECTRICITY" - not found.
   ** Warning ** Output:Meter: invalid Key Name="HEATING:NATURALGAS" - not found.
   ** Warning ** Output:Meter: invalid Key Name="WATERSYSTEMS:NATURALGAS" - not found.
   ** Warning ** Output:Meter: invalid Key Name="PROPANE:FACILITY" - not found.
   ** Warning ** Output:Meter: invalid Key Name="HEATING:PROPANE" - not found.
   ************* Testing Individual Branch Integrity
   ************* All Branches passed integrity testing
   ************* Testing Individual Supply Air Path Integrity
   ************* All Supply Air Paths passed integrity testing
   ************* Testing Individual Return Air Path Integrity
   ************* All Return Air Paths passed integrity testing
   ************* No node connection errors were found.
   ************* Beginning Simulation
   ** Warning ** AirflowNetwork::Solver::validate_distribution: Heat pump water heater is simulated along with an AirflowNetwork but is not included in the AirflowNetwork.
   ** Warning ** CalcEquipmentFlowRates: "TOTAL HOT WATER LOAD" - Target water temperature is greater than the hot water temperature by (0.50 C)
   **   ~~~   **  Environment=EXTREME_WINTER, at Simulation time=01/06 06:00 - 06:15
   **   ~~~   ** ...target water temperature     = 53.33 C
   **   ~~~   ** ...hot water temperature        = 52.83 C
   **   ~~~   ** ...Target water temperature should be less than or equal to the hot water temperature. Verify temperature setpoints and schedules.
   ** Warning ** SimHVAC: Maximum iterations (20) exceeded for all HVAC loops, at ANNUAL, 01/18 08:30 - 08:35
   **   ~~~   ** The solution for one or more of the Air Loop HVAC systems did not appear to converge
   **   ~~~   ** Air System Named = CENTRAL SYSTEM did not converge for mass flow rate
   **   ~~~   ** Check values should be zero. Most Recent values listed first.
   **   ~~~   ** Demand-to-Supply interface mass flow rate check value iteration history trace: 4.766159E-002,4.766159E-002,4.766159E-002,4.766159E-002,4.766159E-002,4.766159E-002,4.766159E-002,4.766159E-002,4.766159E-002,4.766159E-002,
   **   ~~~   ** Supply-to-demand interface deck 1 mass flow rate check value iteration history trace: 4.766159E-002,4.766159E-002,4.766159E-002,4.766159E-002,4.766159E-002,4.766159E-002,4.766159E-002,4.766159E-002,4.766159E-002,4.766159E-002,
   **   ~~~   ** Air System Named = CENTRAL SYSTEM did not converge for energy
   **   ~~~   ** Check values should be zero. Most Recent values listed first.
   **   ~~~   ** Demand-to-Supply interface energy check value iteration history trace: 944.437058,944.437058,944.437058,944.437058,944.437058,944.437058,944.437057,944.437057,944.437057,944.437057,
   **   ~~~   ** Supply-to-demand interface deck 1 energy check value iteration history trace: 1733.768320,1733.768320,1733.768320,1733.768320,1733.768320,1733.768320,1733.768320,1733.768320,1733.768320,1733.768320,
   ** Warning ** SimHVAC: Maximum iterations (20) exceeded for all HVAC loops, at ANNUAL, 01/22 09:15 - 09:19
   **   ~~~   ** The solution for one or more of the Air Loop HVAC systems did not appear to converge
   **   ~~~   ** Air System Named = CENTRAL SYSTEM did not converge for mass flow rate
   **   ~~~   ** Check values should be zero. Most Recent values listed first.
   **   ~~~   ** Demand-to-Supply interface mass flow rate check value iteration history trace: 6.143360E-002,6.143360E-002,6.143360E-002,6.143360E-002,6.143360E-002,6.143360E-002,6.143360E-002,6.143360E-002,6.143360E-002,6.143360E-002,
   **   ~~~   ** Supply-to-demand interface deck 1 mass flow rate check value iteration history trace: 6.143360E-002,6.143360E-002,6.143360E-002,6.143360E-002,6.143360E-002,6.143360E-002,6.143360E-002,6.143360E-002,6.143360E-002,6.143360E-002,
   **   ~~~   ** Air System Named = CENTRAL SYSTEM did not converge for energy
   **   ~~~   ** Check values should be zero. Most Recent values listed first.
   **   ~~~   ** Demand-to-Supply interface energy check value iteration history trace: 1217.393767,1217.393767,1217.393767,1217.393767,1217.393767,1217.393767,1217.393767,1217.393767,1217.393767,1217.393767,
   **   ~~~   ** Supply-to-demand interface deck 1 energy check value iteration history trace: 2216.407759,2216.407759,2216.407759,2216.407759,2216.407759,2216.407759,2216.407759,2216.407759,2216.407759,2216.407759,
   ** Warning ** SimHVAC: Maximum iterations (20) exceeded for all HVAC loops, at ANNUAL, 01/25 01:15 - 01:30
   **   ~~~   ** The solution for one or more of the Air Loop HVAC systems did not appear to converge
   **   ~~~   ** Air System Named = CENTRAL SYSTEM did not converge for mass flow rate
   **   ~~~   ** Check values should be zero. Most Recent values listed first.
   **   ~~~   ** Demand-to-Supply interface mass flow rate check value iteration history trace: 6.790243E-002,6.790243E-002,6.790243E-002,6.790243E-002,6.790243E-002,6.790243E-002,6.790243E-002,6.790243E-002,6.790243E-002,6.790243E-002,
   **   ~~~   ** Supply-to-demand interface deck 1 mass flow rate check value iteration history trace: 6.790243E-002,6.790243E-002,6.790243E-002,6.790243E-002,6.790243E-002,6.790243E-002,6.790243E-002,6.790243E-002,6.790243E-002,6.790243E-002,
   **   ~~~   ** Air System Named = CENTRAL SYSTEM did not converge for energy
   **   ~~~   ** Check values should be zero. Most Recent values listed first.
   **   ~~~   ** Demand-to-Supply interface energy check value iteration history trace: 1263.810855,1263.810855,1263.810855,1263.810855,1263.810855,1263.810855,1263.810855,1263.810855,1263.810854,1263.810854,
   **   ~~~   ** Supply-to-demand interface deck 1 energy check value iteration history trace: 2058.945483,2058.945483,2058.945483,2058.945483,2058.945483,2058.945483,2058.945483,2058.945482,2058.945482,2058.945482,
   ** Warning ** SimHVAC: Maximum iterations (20) exceeded for all HVAC loops, at ANNUAL, 02/18 09:04 - 09:06
   **   ~~~   ** The solution for one or more of the Air Loop HVAC systems did not appear to converge
   **   ~~~   ** Air System Named = CENTRAL SYSTEM did not converge for mass flow rate
   **   ~~~   ** Check values should be zero. Most Recent values listed first.
   **   ~~~   ** Demand-to-Supply interface mass flow rate check value iteration history trace: 5.450081E-002,5.450081E-002,5.450081E-002,5.450081E-002,5.450081E-002,5.450081E-002,5.450081E-002,5.450081E-002,5.450081E-002,5.450081E-002,
   **   ~~~   ** Supply-to-demand interface deck 1 mass flow rate check value iteration history trace: 5.450081E-002,5.450081E-002,5.450081E-002,5.450081E-002,5.450081E-002,5.450081E-002,5.450081E-002,5.450081E-002,5.450081E-002,5.450081E-002,
   **   ~~~   ** Air System Named = CENTRAL SYSTEM did not converge for energy
   **   ~~~   ** Check values should be zero. Most Recent values listed first.
   **   ~~~   ** Demand-to-Supply interface energy check value iteration history trace: 1076.808685,1076.808685,1076.808685,1076.808685,1076.808685,1076.808685,1076.808685,1076.808685,1076.808685,1076.808685,
   **   ~~~   ** Supply-to-demand interface deck 1 energy check value iteration history trace: 2048.219413,2048.219413,2048.219413,2048.219413,2048.219413,2048.219413,2048.219413,2048.219413,2048.219413,2048.219413,
   ** Warning ** SimHVAC: Maximum iterations (20) exceeded for all HVAC loops, at ANNUAL, 03/21 08:34 - 08:38
   **   ~~~   ** The solution for one or more of the Air Loop HVAC systems did not appear to converge
   **   ~~~   ** Air System Named = CENTRAL SYSTEM did not converge for mass flow rate
   **   ~~~   ** Check values should be zero. Most Recent values listed first.
   **   ~~~   ** Demand-to-Supply interface mass flow rate check value iteration history trace: 5.747357E-002,5.747357E-002,5.747357E-002,5.747357E-002,5.747357E-002,5.747357E-002,5.747357E-002,5.747357E-002,5.747357E-002,5.747357E-002,
   **   ~~~   ** Supply-to-demand interface deck 1 mass flow rate check value iteration history trace: 5.747357E-002,5.747357E-002,5.747357E-002,5.747357E-002,5.747357E-002,5.747357E-002,5.747357E-002,5.747357E-002,5.747357E-002,5.747357E-002,
   **   ~~~   ** Air System Named = CENTRAL SYSTEM did not converge for energy
   **   ~~~   ** Check values should be zero. Most Recent values listed first.
   **   ~~~   ** Demand-to-Supply interface energy check value iteration history trace: 1132.188775,1132.188775,1132.188775,1132.188775,1132.188775,1132.188774,1132.188774,1132.188774,1132.188774,1132.188774,
   **   ~~~   ** Supply-to-demand interface deck 1 energy check value iteration history trace: 2064.957785,2064.957785,2064.957785,2064.957785,2064.957784,2064.957784,2064.957784,2064.957784,2064.957784,2064.957784,
   ** Warning ** SimHVAC: Maximum iterations (20) exceeded for all HVAC loops, at ANNUAL, 04/04 09:05 - 09:10
   **   ~~~   ** The solution for one or more of the Air Loop HVAC systems did not appear to converge
   **   ~~~   ** Air System Named = CENTRAL SYSTEM did not converge for mass flow rate
   **   ~~~   ** Check values should be zero. Most Recent values listed first.
   **   ~~~   ** Demand-to-Supply interface mass flow rate check value iteration history trace: 0.295914,0.295914,0.295914,0.295914,0.295914,0.295914,0.295914,0.295914,0.295914,0.295914,
   **   ~~~   ** Supply-to-demand interface deck 1 mass flow rate check value iteration history trace: 0.295914,0.295914,0.295914,0.295914,0.295914,0.295914,0.295914,0.295914,0.295914,0.295914,
   **   ~~~   ** Air System Named = CENTRAL SYSTEM did not converge for energy
   **   ~~~   ** Check values should be zero. Most Recent values listed first.
   **   ~~~   ** Demand-to-Supply interface energy check value iteration history trace: 7092.591641,7092.591642,7092.591642,7092.591643,7092.591643,7092.591644,7092.591644,7092.591645,7092.591645,7092.591645,
   **   ~~~   ** Supply-to-demand interface deck 1 energy check value iteration history trace: 3458.515551,3458.515551,3458.515551,3458.515551,3458.515552,3458.515552,3458.515552,3458.515552,3458.515553,3458.515553,
   ** Warning ** SimHVAC: Maximum iterations (20) exceeded for all HVAC loops, at ANNUAL, 04/05 07:57 - 08:00
   **   ~~~   ** The solution for one or more of the Air Loop HVAC systems did not appear to converge
   **   ~~~   ** Air System Named = CENTRAL SYSTEM did not converge for mass flow rate
   **   ~~~   ** Check values should be zero. Most Recent values listed first.
   **   ~~~   ** Demand-to-Supply interface mass flow rate check value iteration history trace: 0.288906,0.288906,0.288906,0.288906,0.288906,0.288906,0.288906,0.288906,0.288906,0.288906,
   **   ~~~   ** Supply-to-demand interface deck 1 mass flow rate check value iteration history trace: 0.288906,0.288906,0.288906,0.288906,0.288906,0.288906,0.288906,0.288906,0.288906,0.288906,
   **   ~~~   ** Air System Named = CENTRAL SYSTEM did not converge for energy
   **   ~~~   ** Check values should be zero. Most Recent values listed first.
   **   ~~~   ** Demand-to-Supply interface energy check value iteration history trace: 6912.344392,6912.344394,6912.344396,6912.344398,6912.344400,6912.344402,6912.344405,6912.344407,6912.344409,6912.344411,
   **   ~~~   ** Supply-to-demand interface deck 1 energy check value iteration history trace: 3614.142154,3614.142155,3614.142156,3614.142157,3614.142159,3614.142160,3614.142161,3614.142162,3614.142163,3614.142164,
   ** Warning ** SimHVAC: Maximum iterations (20) exceeded for all HVAC loops, at ANNUAL, 11/30 08:30 - 08:45
   **   ~~~   ** The solution for one or more of the Air Loop HVAC systems did not appear to converge
   **   ~~~   ** Air System Named = CENTRAL SYSTEM did not converge for mass flow rate
   **   ~~~   ** Check values should be zero. Most Recent values listed first.
   **   ~~~   ** Demand-to-Supply interface mass flow rate check value iteration history trace: 4.836550E-002,4.836550E-002,4.836550E-002,4.836550E-002,4.836550E-002,4.836550E-002,4.836550E-002,4.836550E-002,4.836550E-002,4.836550E-002,
   **   ~~~   ** Supply-to-demand interface deck 1 mass flow rate check value iteration history trace: 4.836550E-002,4.836550E-002,4.836550E-002,4.836550E-002,4.836550E-002,4.836550E-002,4.836550E-002,4.836550E-002,4.836550E-002,4.836550E-002,
   **   ~~~   ** Air System Named = CENTRAL SYSTEM did not converge for energy
   **   ~~~   ** Check values should be zero. Most Recent values listed first.
   **   ~~~   ** Demand-to-Supply interface energy check value iteration history trace: 958.349821,958.349820,958.349820,958.349820,958.349820,958.349820,958.349820,958.349820,958.349820,958.349820,
   **   ~~~   ** Supply-to-demand interface deck 1 energy check value iteration history trace: 1501.453116,1501.453116,1501.453116,1501.453116,1501.453116,1501.453116,1501.453116,1501.453116,1501.453116,1501.453115,
   ** Warning ** SimHVAC: Maximum iterations (20) exceeded for all HVAC loops, at ANNUAL, 12/02 11:05 - 11:10
   **   ~~~   ** The solution for one or more of the Air Loop HVAC systems did not appear to converge
   **   ~~~   ** Air System Named = CENTRAL SYSTEM did not converge for mass flow rate
   **   ~~~   ** Check values should be zero. Most Recent values listed first.
   **   ~~~   ** Demand-to-Supply interface mass flow rate check value iteration history trace: 0.248831,0.248831,0.248831,0.248831,0.248831,0.248831,0.248831,0.248831,0.248831,0.248831,
   **   ~~~   ** Supply-to-demand interface deck 1 mass flow rate check value iteration history trace: 0.248831,0.248831,0.248831,0.248831,0.248831,0.248831,0.248831,0.248831,0.248831,0.248831,
   **   ~~~   ** Air System Named = CENTRAL SYSTEM did not converge for energy
   **   ~~~   ** Check values should be zero. Most Recent values listed first.
   **   ~~~   ** Demand-to-Supply interface energy check value iteration history trace: 5951.693181,5951.693182,5951.693183,5951.693185,5951.693186,5951.693188,5951.693189,5951.693190,5951.693192,5951.693193,
   **   ~~~   ** Supply-to-demand interface deck 1 energy check value iteration history trace: 2863.467894,2863.467895,2863.467895,2863.467896,2863.467897,2863.467897,2863.467898,2863.467899,2863.467899,2863.467900,
   ** Warning ** SimHVAC: Maximum iterations (20) exceeded for all HVAC loops, at ANNUAL, 12/20 12:15 - 12:30
   **   ~~~   ** The solution for one or more of the Air Loop HVAC systems did not appear to converge
   **   ~~~   ** Air System Named = CENTRAL SYSTEM did not converge for mass flow rate
   **   ~~~   ** Check values should be zero. Most Recent values listed first.
   **   ~~~   ** Demand-to-Supply interface mass flow rate check value iteration history trace: 4.448859E-002,4.448859E-002,4.448859E-002,4.448859E-002,4.448859E-002,4.448859E-002,4.448859E-002,4.448859E-002,4.448859E-002,4.448859E-002,
   **   ~~~   ** Supply-to-demand interface deck 1 mass flow rate check value iteration history trace: 4.448859E-002,4.448859E-002,4.448859E-002,4.448859E-002,4.448859E-002,4.448859E-002,4.448859E-002,4.448859E-002,4.448859E-002,4.448859E-002,
   **   ~~~   ** Air System Named = CENTRAL SYSTEM did not converge for energy
   **   ~~~   ** Check values should be zero. Most Recent values listed first.
   **   ~~~   ** Demand-to-Supply interface energy check value iteration history trace: 881.520581,881.520581,881.520581,881.520581,881.520581,881.520581,881.520581,881.520581,881.520581,881.520581,
   **   ~~~   ** Supply-to-demand interface deck 1 energy check value iteration history trace: 1642.445625,1642.445625,1642.445625,1642.445625,1642.445625,1642.445625,1642.445625,1642.445624,1642.445624,1642.445624,
   ** Warning ** SimHVAC: Maximum iterations (20) exceeded for all HVAC loops, at ANNUAL, 12/26 08:35 - 08:40
   **   ~~~   ** The solution for one or more of the Air Loop HVAC systems did not appear to converge
   **   ~~~   ** Air System Named = CENTRAL SYSTEM did not converge for mass flow rate
   **   ~~~   ** Check values should be zero. Most Recent values listed first.
   **   ~~~   ** Demand-to-Supply interface mass flow rate check value iteration history trace: 6.231668E-002,6.231668E-002,6.231668E-002,6.231668E-002,6.231668E-002,6.231668E-002,6.231668E-002,6.231668E-002,6.231668E-002,6.231668E-002,
   **   ~~~   ** Supply-to-demand interface deck 1 mass flow rate check value iteration history trace: 6.231668E-002,6.231668E-002,6.231668E-002,6.231668E-002,6.231668E-002,6.231668E-002,6.231668E-002,6.231668E-002,6.231668E-002,6.231668E-002,
   **   ~~~   ** Air System Named = CENTRAL SYSTEM did not converge for energy
   **   ~~~   ** Check values should be zero. Most Recent values listed first.
   **   ~~~   ** Demand-to-Supply interface energy check value iteration history trace: 1234.910826,1234.910825,1234.910825,1234.910825,1234.910825,1234.910825,1234.910825,1234.910825,1234.910825,1234.910825,
   **   ~~~   ** Supply-to-demand interface deck 1 energy check value iteration history trace: 2193.044284,2193.044284,2193.044284,2193.044284,2193.044283,2193.044283,2193.044283,2193.044283,2193.044283,2193.044283,
   ** Warning ** SimHVAC: Maximum iterations (20) exceeded for all HVAC loops, at ANNUAL, 12/31 09:45 - 10:00
   **   ~~~   ** The solution for one or more of the Air Loop HVAC systems did not appear to converge
   **   ~~~   ** Air System Named = CENTRAL SYSTEM did not converge for mass flow rate
   **   ~~~   ** Check values should be zero. Most Recent values listed first.
   **   ~~~   ** Demand-to-Supply interface mass flow rate check value iteration history trace: 7.178728E-002,7.178728E-002,7.178728E-002,7.178728E-002,7.178728E-002,7.178728E-002,7.178728E-002,7.178728E-002,7.178728E-002,7.178728E-002,
   **   ~~~   ** Supply-to-demand interface deck 1 mass flow rate check value iteration history trace: 7.178728E-002,7.178728E-002,7.178728E-002,7.178728E-002,7.178728E-002,7.178728E-002,7.178728E-002,7.178728E-002,7.178728E-002,7.178728E-002,
   **   ~~~   ** Air System Named = CENTRAL SYSTEM did not converge for energy
   **   ~~~   ** Check values should be zero. Most Recent values listed first.
   **   ~~~   ** Demand-to-Supply interface energy check value iteration history trace: 1422.512640,1422.512640,1422.512640,1422.512640,1422.512640,1422.512640,1422.512640,1422.512640,1422.512640,1422.512640,
   **   ~~~   ** Supply-to-demand interface deck 1 energy check value iteration history trace: 2480.084704,2480.084704,2480.084704,2480.084704,2480.084703,2480.084703,2480.084703,2480.084703,2480.084703,2480.084703,
   ************* Simulation Error Summary *************
   ** Warning ** The following Report Variables were requested but not generated -- check.rdd file
   **   ~~~   ** Either the IDF did not contain these elements, the variable name is misspelled,
   **   ~~~   ** or the requested variable is an advanced output which requires Output : Diagnostics, DisplayAdvancedReportVariables;
   ************* Key=*, VarName=BASEBOARD TOTAL HEATING ENERGY, Frequency=
   ************* Key=*, VarName=WATER HEATER NATURALGAS ENERGY, Frequency=
   ************* Key=*, VarName=COOLING COIL TOTAL HEATING ENERGY, Frequency=
   ************* There are 34 unused schedules in input.
   ************* There are 388 unused week schedules in input.
   ************* There are 396 unused day schedules in input.
   ************* Use Output:Diagnostics,DisplayUnusedSchedules; to see them.
   *************
   ************* ===== Recurring Error Summary =====
   ************* The following recurring error messages occurred.
   *************
   *************  ** Warning ** "TOTAL HOT WATER LOAD" - Target water temperature should be less than or equal to the hot water temperature error continues...
   *************  **   ~~~   **   This error occurred 134653 total times;
   *************  **   ~~~   **   during Warmup 0 times;
   *************  **   ~~~   **   during Sizing 0 times.
   *************  **   ~~~   **   Max=8.875404  Min=1.632063E-005
   *************
   *************
   ************* ===== Final Error Summary =====
   ************* The following error categories occurred.  Consider correcting or noting.
   ************* Nominally Unused Constructions
   ************* ..The nominally unused constructions warning is provided to alert you to potential conditions that can cause
   ************* ..extra time during simulation. Each construction is calculated by the algorithm indicated in the HeatBalanceAlgorithm
   ************* ..object. You may remove the constructions indicated (when you use the DisplayExtraWarnings option).
   *************
   ************* EnergyPlus Warmup Error Summary. During Warmup: 1 Warning; 0 Severe Errors.
   ************* EnergyPlus Sizing Error Summary. During Sizing: 4 Warning; 0 Severe Errors.
   ************* EnergyPlus Completed Successfully-- 134682 Warning; 0 Severe Errors; Elapsed Time=00hr 01min 38.39sec
