Program Version,EnergyPlus, Version 22.2.0-c249759bad, YMD=2023.09.01 20:12,
   ************* Beginning Zone Sizing Calculations
   ** Warning ** ProcessScheduleInput: Schedule:Constant="ALWAYS ON DISCRETE", Schedule Type Limits Name="ONOFF" not found -- will not be validated
   ** Warning ** Foundation:Kiva="KIVA FOUNDATION", no Interior Horizontal Insulation Material Name defined
   **   ~~~   ** Interior Horizontal Insulation Depth will not be used.
   ** Warning ** CheckUsedConstructions: There are 15 nominally unused constructions in input.
   **   ~~~   ** Each Unused construction is shown.
   ************* Construction=INTERIOR FLOOR
   ************* Construction=INTERIOR WINDOW
   ************* Construction=EXTERIOR DOOR
   ************* Construction=INTERIOR DOOR
   ************* Construction=GABLE CONSTRUCTION
   ************* Construction=CRAWL_FLOOR
   ************* Construction=INSULATED PIPE
   ************* Construction=PLAIN PIPE
   ************* Construction=TDD PIPE
   ************* Construction=TDD DOME
   ************* Construction=TDD DIFFUSER
   ************* Construction=CRAWL WALL
   ************* Construction=CEILING-FLOOR-LAYER
   ************* Construction=SLAB CONSTRUCTION W FULL R10 INSULATION
   ************* Construction=SLAB CONSTRUCTION W FULL R5 INSULATION
   ** Warning ** GetDXCoils: Coil:Heating:DX:SingleSpeed="DX_HEATING_COIL" curve values
   **   ~~~   ** ... Defrost Energy Input Ratio Function of Temperature Curve Name = DEFROSTEIR output is not equal to 1.0 (+ or - 10%) at rated conditions.
   **   ~~~   ** ... Curve output at rated conditions = 0.152
   ************* Beginning System Sizing Calculations
   ************* Beginning Plant Sizing Calculations
   ** Warning ** SizeDXCoil Coil:Cooling:DX:SingleSpeed DX_COOLING_COIL
   **   ~~~   ** ...Gross Rated Total Cooling Capacity [W] will be limited by the maximum rated volume flow per rated total capacity ratio.
   **   ~~~   ** ...DX coil volume flow rate ( m3/s ) = 0.584572
   **   ~~~   ** ...Requested capacity ( W ) = 8497.033
   **   ~~~   ** ...Requested flow/capacity ratio ( m3/s/W ) = 6.879E-005
   **   ~~~   ** ...Maximum flow/capacity ratio ( m3/s/W ) = 6.041E-005
   **   ~~~   ** ...Adjusted capacity ( W ) = 9676.756
   ** Warning ** Coil:WaterHeating:AirToWaterHeatPump:Wrapped "HEAT PUMP WATER HEATER EVAPORATOR": Rated air volume flow rate per watt of rated total water heating capacity is out of range
   **   ~~~   ** Min Rated Vol Flow Per Watt=[4.027E-005], Rated Vol Flow Per Watt=[1.510E-004], Max Rated Vol Flow Per Watt=[8.056E-005]. See Input-Output Reference Manual for valid range.
   ************* SizeFan: : Potential issue with equipment sizing for Fan:OnOff HEAT PUMP WATER HEATER FAN
   **   ~~~   ** User-Specified Maximum Flow Rate [m3/s] = 0.22653
   **   ~~~   ** differs from Design Size Maximum Flow Rate [m3/s] = 7.55250E-002
   **   ~~~   ** This may, or may not, indicate mismatched component sizes.
   **   ~~~   ** Verify that the value entered is intended and is consistent with other components.
   ** Warning ** Water heater = WATER HEATER TANK:  Recovery Efficiency and Energy Factor could not be calculated during the test for standard ratings
   **   ~~~   ** Setpoint was never recovered and/or heater never turned on
   ** Warning ** Check input. Pump nominal power or motor efficiency is set to 0, for pump=MAINS PRESSURE
   ** Warning ** AirflowNetwork::Solver::validate_distribution: Heat pump water heater is simulated along with an AirflowNetwork but is not included in the AirflowNetwork.
   ** Warning ** Output:Meter: invalid Key Name="ELECTRIC_RANGE:INTERIOREQUIPMENT:ELECTRICITY" - not found.
   ** Warning ** Output:Meter: invalid Key Name="ELECTRIC_DRYER:INTERIOREQUIPMENT:ELECTRICITY" - not found.
   ** Warning ** Output:Meter: invalid Key Name="HEATRECOVERY:ELECTRICITY" - not found.
   ** Warning ** Output:Meter: invalid Key Name="HEATING:NATURALGAS" - not found.
   ** Warning ** Output:Meter: invalid Key Name="WATERSYSTEMS:NATURALGAS" - not found.
   ** Warning ** Output:Meter: invalid Key Name="PROPANE:FACILITY" - not found.
   ** Warning ** Output:Meter: invalid Key Name="HEATING:PROPANE" - not found.
   ************* Testing Individual Branch Integrity
   ************* All Branches passed integrity testing
   ************* Testing Individual Supply Air Path Integrity
   ************* All Supply Air Paths passed integrity testing
   ************* Testing Individual Return Air Path Integrity
   ************* All Return Air Paths passed integrity testing
   ************* No node connection errors were found.
   ************* Beginning Simulation
   ** Warning ** CalcEquipmentFlowRates: "TOTAL HOT WATER LOAD" - Target water temperature is greater than the hot water temperature by (4.49 C)
   **   ~~~   **  Environment=EXTREME_WINTER, at Simulation time=12/22 07:00 - 07:15
   **   ~~~   ** ...target water temperature     = 53.33 C
   **   ~~~   ** ...hot water temperature        = 48.84 C
   **   ~~~   ** ...Target water temperature should be less than or equal to the hot water temperature. Verify temperature setpoints and schedules.
   ** Warning ** SimHVAC: Maximum iterations (20) exceeded for all HVAC loops, at EXTREME_WINTER, 12/24 15:45 - 16:00
   **   ~~~   ** The solution for one or more of the Air Loop HVAC systems did not appear to converge
   **   ~~~   ** Air System Named = CENTRAL SYSTEM did not converge for mass flow rate
   **   ~~~   ** Check values should be zero. Most Recent values listed first.
   **   ~~~   ** Demand-to-Supply interface mass flow rate check value iteration history trace: 6.188036E-002,6.188036E-002,6.188036E-002,6.188036E-002,6.188036E-002,6.188036E-002,6.188036E-002,6.188036E-002,6.188036E-002,6.188036E-002,
   **   ~~~   ** Supply-to-demand interface deck 1 mass flow rate check value iteration history trace: 6.188036E-002,6.188036E-002,6.188036E-002,6.188036E-002,6.188036E-002,6.188036E-002,6.188036E-002,6.188036E-002,6.188036E-002,6.188036E-002,
   **   ~~~   ** Air System Named = CENTRAL SYSTEM did not converge for energy
   **   ~~~   ** Check values should be zero. Most Recent values listed first.
   **   ~~~   ** Demand-to-Supply interface energy check value iteration history trace: 1227.741821,1227.741821,1227.741820,1227.741820,1227.741820,1227.741820,1227.741820,1227.741820,1227.741820,1227.741820,
   **   ~~~   ** Supply-to-demand interface deck 1 energy check value iteration history trace: 2202.297856,2202.297856,2202.297856,2202.297855,2202.297855,2202.297855,2202.297855,2202.297855,2202.297855,2202.297855,
   ** Warning ** SimHVAC: Maximum iterations (20) exceeded for all HVAC loops, at EXTREME_WINTER, 12/24 17:08 - 17:15
   **   ~~~   ** The solution for one or more of the Air Loop HVAC systems did not appear to converge
   **   ~~~   ** Air System Named = CENTRAL SYSTEM did not converge for mass flow rate
   **   ~~~   ** Check values should be zero. Most Recent values listed first.
   **   ~~~   ** Demand-to-Supply interface mass flow rate check value iteration history trace: 5.511228E-002,5.511228E-002,5.511228E-002,5.511228E-002,5.511228E-002,5.511228E-002,5.511228E-002,5.511228E-002,5.511228E-002,5.511228E-002,
   **   ~~~   ** Supply-to-demand interface deck 1 mass flow rate check value iteration history trace: 5.511228E-002,5.511228E-002,5.511228E-002,5.511228E-002,5.511228E-002,5.511228E-002,5.511228E-002,5.511228E-002,5.511228E-002,5.511228E-002,
   **   ~~~   ** Air System Named = CENTRAL SYSTEM did not converge for energy
   **   ~~~   ** Check values should be zero. Most Recent values listed first.
   **   ~~~   ** Demand-to-Supply interface energy check value iteration history trace: 1087.649875,1087.649875,1087.649875,1087.649875,1087.649875,1087.649875,1087.649875,1087.649875,1087.649875,1087.649874,
   **   ~~~   ** Supply-to-demand interface deck 1 energy check value iteration history trace: 1951.072479,1951.072479,1951.072479,1951.072479,1951.072479,1951.072479,1951.072479,1951.072478,1951.072478,1951.072478,
   ** Warning ** SimHVAC: Maximum iterations (20) exceeded for all HVAC loops, at EXTREME_WINTER, 12/24 17:30 - 17:38
   **   ~~~   ** The solution for one or more of the Air Loop HVAC systems did not appear to converge
   **   ~~~   ** Air System Named = CENTRAL SYSTEM did not converge for mass flow rate
   **   ~~~   ** Check values should be zero. Most Recent values listed first.
   **   ~~~   ** Demand-to-Supply interface mass flow rate check value iteration history trace: 5.398440E-002,5.398440E-002,5.398440E-002,5.398440E-002,5.398440E-002,5.398440E-002,5.398440E-002,5.398440E-002,5.398440E-002,5.398440E-002,
   **   ~~~   ** Supply-to-demand interface deck 1 mass flow rate check value iteration history trace: 5.398440E-002,5.398440E-002,5.398440E-002,5.398440E-002,5.398440E-002,5.398440E-002,5.398440E-002,5.398440E-002,5.398440E-002,5.398440E-002,
   **   ~~~   ** Air System Named = CENTRAL SYSTEM did not converge for energy
   **   ~~~   ** Check values should be zero. Most Recent values listed first.
   **   ~~~   ** Demand-to-Supply interface energy check value iteration history trace: 1067.972815,1067.972815,1067.972814,1067.972814,1067.972814,1067.972814,1067.972814,1067.972814,1067.972814,1067.972814,
   **   ~~~   ** Supply-to-demand interface deck 1 energy check value iteration history trace: 1903.431039,1903.431039,1903.431039,1903.431039,1903.431039,1903.431039,1903.431039,1903.431039,1903.431039,1903.431039,
   ** Warning ** SimHVAC: Maximum iterations (20) exceeded for all HVAC loops, at EXTREME_WINTER, 01/01 10:00 - 10:15
   **   ~~~   ** The solution for one or more of the Air Loop HVAC systems did not appear to converge
   **   ~~~   ** Air System Named = CENTRAL SYSTEM did not converge for mass flow rate
   **   ~~~   ** Check values should be zero. Most Recent values listed first.
   **   ~~~   ** Demand-to-Supply interface mass flow rate check value iteration history trace: 9.513136E-002,9.513136E-002,9.513136E-002,9.513136E-002,9.513136E-002,9.513136E-002,9.513136E-002,9.513136E-002,9.513136E-002,9.513136E-002,
   **   ~~~   ** Supply-to-demand interface deck 1 mass flow rate check value iteration history trace: 9.513136E-002,9.513136E-002,9.513136E-002,9.513136E-002,9.513136E-002,9.513136E-002,9.513136E-002,9.513136E-002,9.513136E-002,9.513136E-002,
   **   ~~~   ** Air System Named = CENTRAL SYSTEM did not converge for energy
   **   ~~~   ** Check values should be zero. Most Recent values listed first.
   **   ~~~   ** Demand-to-Supply interface energy check value iteration history trace: 1885.049732,1885.049732,1885.049732,1885.049732,1885.049732,1885.049732,1885.049732,1885.049732,1885.049732,1885.049731,
   **   ~~~   ** Supply-to-demand interface deck 1 energy check value iteration history trace: 2927.481452,2927.481452,2927.481452,2927.481452,2927.481452,2927.481452,2927.481451,2927.481451,2927.481451,2927.481451,
   ** Warning ** SimHVAC: Maximum iterations (20) exceeded for all HVAC loops, at ANNUAL, 01/01 09:45 - 10:00
   **   ~~~   ** The solution for one or more of the Air Loop HVAC systems did not appear to converge
   **   ~~~   ** Air System Named = CENTRAL SYSTEM did not converge for mass flow rate
   **   ~~~   ** Check values should be zero. Most Recent values listed first.
   **   ~~~   ** Demand-to-Supply interface mass flow rate check value iteration history trace: 9.587784E-002,9.587784E-002,9.587784E-002,9.587784E-002,9.587784E-002,9.587784E-002,9.587784E-002,9.587784E-002,9.587784E-002,9.587784E-002,
   **   ~~~   ** Supply-to-demand interface deck 1 mass flow rate check value iteration history trace: 9.587784E-002,9.587784E-002,9.587784E-002,9.587784E-002,9.587784E-002,9.587784E-002,9.587784E-002,9.587784E-002,9.587784E-002,9.587784E-002,
   **   ~~~   ** Air System Named = CENTRAL SYSTEM did not converge for energy
   **   ~~~   ** Check values should be zero. Most Recent values listed first.
   **   ~~~   ** Demand-to-Supply interface energy check value iteration history trace: 1899.921428,1899.921428,1899.921428,1899.921428,1899.921428,1899.921428,1899.921428,1899.921428,1899.921428,1899.921427,
   **   ~~~   ** Supply-to-demand interface deck 1 energy check value iteration history trace: 2932.756481,2932.756481,2932.756480,2932.756480,2932.756480,2932.756480,2932.756480,2932.756480,2932.756479,2932.756479,
   ** Warning ** SimHVAC: Maximum iterations (20) exceeded for all HVAC loops, at ANNUAL, 01/03 12:09 - 12:12
   **   ~~~   ** The solution for one or more of the Air Loop HVAC systems did not appear to converge
   **   ~~~   ** Air System Named = CENTRAL SYSTEM did not converge for mass flow rate
   **   ~~~   ** Check values should be zero. Most Recent values listed first.
   **   ~~~   ** Demand-to-Supply interface mass flow rate check value iteration history trace: 6.614652E-002,6.614652E-002,6.614652E-002,6.614652E-002,6.614652E-002,6.614652E-002,6.614652E-002,6.614652E-002,6.614652E-002,6.614652E-002,
   **   ~~~   ** Supply-to-demand interface deck 1 mass flow rate check value iteration history trace: 6.614652E-002,6.614652E-002,6.614652E-002,6.614652E-002,6.614652E-002,6.614652E-002,6.614652E-002,6.614652E-002,6.614652E-002,6.614652E-002,
   **   ~~~   ** Air System Named = CENTRAL SYSTEM did not converge for energy
   **   ~~~   ** Check values should be zero. Most Recent values listed first.
   **   ~~~   ** Demand-to-Supply interface energy check value iteration history trace: 1308.843221,1308.843221,1308.843221,1308.843221,1308.843220,1308.843220,1308.843220,1308.843220,1308.843220,1308.843220,
   **   ~~~   ** Supply-to-demand interface deck 1 energy check value iteration history trace: 2285.712900,2285.712900,2285.712900,2285.712900,2285.712900,2285.712899,2285.712899,2285.712899,2285.712899,2285.712899,
   ** Warning ** SimHVAC: Maximum iterations (20) exceeded for all HVAC loops, at ANNUAL, 01/24 12:20 - 12:25
   **   ~~~   ** The solution for one or more of the Air Loop HVAC systems did not appear to converge
   **   ~~~   ** Air System Named = CENTRAL SYSTEM did not converge for mass flow rate
   **   ~~~   ** Check values should be zero. Most Recent values listed first.
   **   ~~~   ** Demand-to-Supply interface mass flow rate check value iteration history trace: 4.905136E-002,4.905136E-002,4.905136E-002,4.905136E-002,4.905136E-002,4.905136E-002,4.905136E-002,4.905136E-002,4.905136E-002,4.905136E-002,
   **   ~~~   ** Supply-to-demand interface deck 1 mass flow rate check value iteration history trace: 4.905136E-002,4.905136E-002,4.905136E-002,4.905136E-002,4.905136E-002,4.905136E-002,4.905136E-002,4.905136E-002,4.905136E-002,4.905136E-002,
   **   ~~~   ** Air System Named = CENTRAL SYSTEM did not converge for energy
   **   ~~~   ** Check values should be zero. Most Recent values listed first.
   **   ~~~   ** Demand-to-Supply interface energy check value iteration history trace: 968.970860,968.970860,968.970860,968.970860,968.970860,968.970860,968.970860,968.970860,968.970860,968.970860,
   **   ~~~   ** Supply-to-demand interface deck 1 energy check value iteration history trace: 1805.738775,1805.738775,1805.738775,1805.738775,1805.738775,1805.738775,1805.738775,1805.738775,1805.738775,1805.738775,
   ** Warning ** SimHVAC: Maximum iterations (20) exceeded for all HVAC loops, at ANNUAL, 01/27 21:45 - 22:00
   **   ~~~   ** The solution for one or more of the Air Loop HVAC systems did not appear to converge
   **   ~~~   ** Air System Named = CENTRAL SYSTEM did not converge for mass flow rate
   **   ~~~   ** Check values should be zero. Most Recent values listed first.
   **   ~~~   ** Demand-to-Supply interface mass flow rate check value iteration history trace: 7.561550E-002,7.561550E-002,7.561550E-002,7.561550E-002,7.561550E-002,7.561550E-002,7.561550E-002,7.561550E-002,7.561550E-002,7.561550E-002,
   **   ~~~   ** Supply-to-demand interface deck 1 mass flow rate check value iteration history trace: 7.561550E-002,7.561550E-002,7.561550E-002,7.561550E-002,7.561550E-002,7.561550E-002,7.561550E-002,7.561550E-002,7.561550E-002,7.561550E-002,
   **   ~~~   ** Air System Named = CENTRAL SYSTEM did not converge for energy
   **   ~~~   ** Check values should be zero. Most Recent values listed first.
   **   ~~~   ** Demand-to-Supply interface energy check value iteration history trace: 1472.904018,1472.904018,1472.904018,1472.904018,1472.904018,1472.904018,1472.904018,1472.904018,1472.904018,1472.904018,
   **   ~~~   ** Supply-to-demand interface deck 1 energy check value iteration history trace: 2334.258250,2334.258250,2334.258249,2334.258249,2334.258249,2334.258249,2334.258249,2334.258249,2334.258249,2334.258249,
   ** Warning ** SimHVAC: Maximum iterations (20) exceeded for all HVAC loops, at ANNUAL, 02/01 09:00 - 09:02
   **   ~~~   ** The solution for one or more of the Air Loop HVAC systems did not appear to converge
   **   ~~~   ** Air System Named = CENTRAL SYSTEM did not converge for mass flow rate
   **   ~~~   ** Check values should be zero. Most Recent values listed first.
   **   ~~~   ** Demand-to-Supply interface mass flow rate check value iteration history trace: 6.639740E-002,6.639740E-002,6.639740E-002,6.639740E-002,6.639740E-002,6.639740E-002,6.639740E-002,6.639740E-002,6.639740E-002,6.639740E-002,
   **   ~~~   ** Supply-to-demand interface deck 1 mass flow rate check value iteration history trace: 6.639740E-002,6.639740E-002,6.639740E-002,6.639740E-002,6.639740E-002,6.639740E-002,6.639740E-002,6.639740E-002,6.639740E-002,6.639740E-002,
   **   ~~~   ** Air System Named = CENTRAL SYSTEM did not converge for energy
   **   ~~~   ** Check values should be zero. Most Recent values listed first.
   **   ~~~   ** Demand-to-Supply interface energy check value iteration history trace: 1315.728613,1315.728613,1315.728613,1315.728613,1315.728613,1315.728613,1315.728613,1315.728613,1315.728613,1315.728613,
   **   ~~~   ** Supply-to-demand interface deck 1 energy check value iteration history trace: 2331.910765,2331.910765,2331.910765,2331.910765,2331.910765,2331.910765,2331.910765,2331.910765,2331.910765,2331.910765,
   ** Warning ** SimHVAC: Maximum iterations (20) exceeded for all HVAC loops, at ANNUAL, 02/21 11:38 - 11:40
   **   ~~~   ** The solution for one or more of the Air Loop HVAC systems did not appear to converge
   **   ~~~   ** Air System Named = CENTRAL SYSTEM did not converge for mass flow rate
   **   ~~~   ** Check values should be zero. Most Recent values listed first.
   **   ~~~   ** Demand-to-Supply interface mass flow rate check value iteration history trace: 7.278407E-002,7.278407E-002,7.278407E-002,7.278407E-002,7.278407E-002,7.278407E-002,7.278407E-002,7.278407E-002,7.278407E-002,7.278407E-002,
   **   ~~~   ** Supply-to-demand interface deck 1 mass flow rate check value iteration history trace: 7.278407E-002,7.278407E-002,7.278407E-002,7.278407E-002,7.278407E-002,7.278407E-002,7.278407E-002,7.278407E-002,7.278407E-002,7.278407E-002,
   **   ~~~   ** Air System Named = CENTRAL SYSTEM did not converge for energy
   **   ~~~   ** Check values should be zero. Most Recent values listed first.
   **   ~~~   ** Demand-to-Supply interface energy check value iteration history trace: 1434.241978,1434.241978,1434.241978,1434.241978,1434.241978,1434.241978,1434.241977,1434.241977,1434.241977,1434.241977,
   **   ~~~   ** Supply-to-demand interface deck 1 energy check value iteration history trace: 2480.148690,2480.148690,2480.148690,2480.148689,2480.148689,2480.148689,2480.148689,2480.148689,2480.148689,2480.148689,
   ** Warning ** SimHVAC: Maximum iterations (20) exceeded for all HVAC loops, at ANNUAL, 02/24 10:15 - 10:30
   **   ~~~   ** The solution for one or more of the Air Loop HVAC systems did not appear to converge
   **   ~~~   ** Air System Named = CENTRAL SYSTEM did not converge for mass flow rate
   **   ~~~   ** Check values should be zero. Most Recent values listed first.
   **   ~~~   ** Demand-to-Supply interface mass flow rate check value iteration history trace: 9.566676E-002,9.566676E-002,9.566676E-002,9.566676E-002,9.566676E-002,9.566676E-002,9.566676E-002,9.566676E-002,9.566676E-002,9.566676E-002,
   **   ~~~   ** Supply-to-demand interface deck 1 mass flow rate check value iteration history trace: 9.566676E-002,9.566676E-002,9.566676E-002,9.566676E-002,9.566676E-002,9.566676E-002,9.566676E-002,9.566676E-002,9.566676E-002,9.566676E-002,
   **   ~~~   ** Air System Named = CENTRAL SYSTEM did not converge for energy
   **   ~~~   ** Check values should be zero. Most Recent values listed first.
   **   ~~~   ** Demand-to-Supply interface energy check value iteration history trace: 1895.914960,1895.914960,1895.914960,1895.914959,1895.914959,1895.914959,1895.914959,1895.914959,1895.914959,1895.914959,
   **   ~~~   ** Supply-to-demand interface deck 1 energy check value iteration history trace: 2992.695544,2992.695544,2992.695544,2992.695544,2992.695543,2992.695543,2992.695543,2992.695543,2992.695543,2992.695543,
   ** Warning ** SimHVAC: Maximum iterations (20) exceeded for all HVAC loops, at ANNUAL, 03/06 08:30 - 08:45
   **   ~~~   ** The solution for one or more of the Air Loop HVAC systems did not appear to converge
   **   ~~~   ** Air System Named = CENTRAL SYSTEM did not converge for mass flow rate
   **   ~~~   ** Check values should be zero. Most Recent values listed first.
   **   ~~~   ** Demand-to-Supply interface mass flow rate check value iteration history trace: 7.067128E-002,7.067128E-002,7.067128E-002,7.067128E-002,7.067128E-002,7.067128E-002,7.067128E-002,7.067128E-002,7.067128E-002,7.067128E-002,
   **   ~~~   ** Supply-to-demand interface deck 1 mass flow rate check value iteration history trace: 7.067128E-002,7.067128E-002,7.067128E-002,7.067128E-002,7.067128E-002,7.067128E-002,7.067128E-002,7.067128E-002,7.067128E-002,7.067128E-002,
   **   ~~~   ** Air System Named = CENTRAL SYSTEM did not converge for energy
   **   ~~~   ** Check values should be zero. Most Recent values listed first.
   **   ~~~   ** Demand-to-Supply interface energy check value iteration history trace: 1400.441945,1400.441945,1400.441945,1400.441945,1400.441945,1400.441945,1400.441945,1400.441945,1400.441945,1400.441945,
   **   ~~~   ** Supply-to-demand interface deck 1 energy check value iteration history trace: 2433.422237,2433.422237,2433.422237,2433.422237,2433.422237,2433.422237,2433.422237,2433.422237,2433.422236,2433.422236,
   ** Warning ** SimHVAC: Maximum iterations (20) exceeded for all HVAC loops, at ANNUAL, 04/18 07:15 - 07:19
   **   ~~~   ** The solution for one or more of the Air Loop HVAC systems did not appear to converge
   **   ~~~   ** Air System Named = CENTRAL SYSTEM did not converge for mass flow rate
   **   ~~~   ** Check values should be zero. Most Recent values listed first.
   **   ~~~   ** Demand-to-Supply interface mass flow rate check value iteration history trace: 6.415577E-002,6.415577E-002,6.415577E-002,6.415577E-002,6.415577E-002,6.415577E-002,6.415577E-002,6.415577E-002,6.415577E-002,6.415577E-002,
   **   ~~~   ** Supply-to-demand interface deck 1 mass flow rate check value iteration history trace: 6.415577E-002,6.415577E-002,6.415577E-002,6.415577E-002,6.415577E-002,6.415577E-002,6.415577E-002,6.415577E-002,6.415577E-002,6.415577E-002,
   **   ~~~   ** Air System Named = CENTRAL SYSTEM did not converge for energy
   **   ~~~   ** Check values should be zero. Most Recent values listed first.
   **   ~~~   ** Demand-to-Supply interface energy check value iteration history trace: 1271.313927,1271.313927,1271.313927,1271.313927,1271.313927,1271.313927,1271.313927,1271.313926,1271.313926,1271.313926,
   **   ~~~   ** Supply-to-demand interface deck 1 energy check value iteration history trace: 2068.282466,2068.282466,2068.282466,2068.282466,2068.282466,2068.282466,2068.282466,2068.282466,2068.282465,2068.282465,
   ** Warning ** SimHVAC: Maximum iterations (20) exceeded for all HVAC loops, at ANNUAL, 11/15 09:34 - 09:36
   **   ~~~   ** The solution for one or more of the Air Loop HVAC systems did not appear to converge
   **   ~~~   ** Air System Named = CENTRAL SYSTEM did not converge for mass flow rate
   **   ~~~   ** Check values should be zero. Most Recent values listed first.
   **   ~~~   ** Demand-to-Supply interface mass flow rate check value iteration history trace: 7.427645E-002,7.427645E-002,7.427645E-002,7.427645E-002,7.427645E-002,7.427645E-002,7.427645E-002,7.427645E-002,7.427645E-002,7.427645E-002,
   **   ~~~   ** Supply-to-demand interface deck 1 mass flow rate check value iteration history trace: 7.427645E-002,7.427645E-002,7.427645E-002,7.427645E-002,7.427645E-002,7.427645E-002,7.427645E-002,7.427645E-002,7.427645E-002,7.427645E-002,
   **   ~~~   ** Air System Named = CENTRAL SYSTEM did not converge for energy
   **   ~~~   ** Check values should be zero. Most Recent values listed first.
   **   ~~~   ** Demand-to-Supply interface energy check value iteration history trace: 1466.228091,1466.228091,1466.228091,1466.228091,1466.228091,1466.228091,1466.228091,1466.228091,1466.228090,1466.228090,
   **   ~~~   ** Supply-to-demand interface deck 1 energy check value iteration history trace: 2538.014746,2538.014746,2538.014746,2538.014746,2538.014746,2538.014746,2538.014746,2538.014745,2538.014745,2538.014745,
   ************* Simulation Error Summary *************
   ** Warning ** The following Report Variables were requested but not generated -- check.rdd file
   **   ~~~   ** Either the IDF did not contain these elements, the variable name is misspelled,
   **   ~~~   ** or the requested variable is an advanced output which requires Output : Diagnostics, DisplayAdvancedReportVariables;
   ************* Key=*, VarName=BASEBOARD TOTAL HEATING ENERGY, Frequency=
   ************* Key=*, VarName=WATER HEATER NATURALGAS ENERGY, Frequency=
   ************* Key=*, VarName=COOLING COIL TOTAL HEATING ENERGY, Frequency=
   ************* There are 34 unused schedules in input.
   ************* There are 388 unused week schedules in input.
   ************* There are 396 unused day schedules in input.
   ************* Use Output:Diagnostics,DisplayUnusedSchedules; to see them.
   *************
   ************* ===== Recurring Error Summary =====
   ************* The following recurring error messages occurred.
   *************
   *************  ** Warning ** "TOTAL HOT WATER LOAD" - Target water temperature should be less than or equal to the hot water temperature error continues...
   *************  **   ~~~   **   This error occurred 225955 total times;
   *************  **   ~~~   **   during Warmup 0 times;
   *************  **   ~~~   **   during Sizing 0 times.
   *************  **   ~~~   **   Max=12.115893  Min=2.061832E-004
   *************
   *************  ** Warning ** SimHVAC: Exceeding Maximum iterations for all HVAC loops, during ANNUAL continues
   *************  **   ~~~   **   This error occurred 9 total times;
   *************  **   ~~~   **   during Warmup 0 times;
   *************  **   ~~~   **   during Sizing 0 times.
   *************
   *************
   ************* ===== Final Error Summary =====
   ************* The following error categories occurred.  Consider correcting or noting.
   ************* Nominally Unused Constructions
   ************* ..The nominally unused constructions warning is provided to alert you to potential conditions that can cause
   ************* ..extra time during simulation. Each construction is calculated by the algorithm indicated in the HeatBalanceAlgorithm
   ************* ..object. You may remove the constructions indicated (when you use the DisplayExtraWarnings option).
   *************
   ************* EnergyPlus Warmup Error Summary. During Warmup: 0 Warning; 0 Severe Errors.
   ************* EnergyPlus Sizing Error Summary. During Sizing: 4 Warning; 0 Severe Errors.
   ************* EnergyPlus Completed Successfully-- 225996 Warning; 0 Severe Errors; Elapsed Time=00hr 01min 58.19sec
