Program Version,EnergyPlus, Version 22.2.0-c249759bad, YMD=2023.09.01 18:58,
   ************* Beginning Zone Sizing Calculations
   ** Warning ** ProcessScheduleInput: Schedule:Constant="ALWAYS ON DISCRETE", Schedule Type Limits Name="ONOFF" not found -- will not be validated
   ** Warning ** Foundation:Kiva="KIVA FOUNDATION", no Interior Horizontal Insulation Material Name defined
   **   ~~~   ** Interior Horizontal Insulation Depth will not be used.
   ** Warning ** CheckUsedConstructions: There are 15 nominally unused constructions in input.
   **   ~~~   ** Each Unused construction is shown.
   ************* Construction=INTERIOR FLOOR
   ************* Construction=INTERIOR WINDOW
   ************* Construction=EXTERIOR DOOR
   ************* Construction=INTERIOR DOOR
   ************* Construction=GABLE CONSTRUCTION
   ************* Construction=CRAWL_FLOOR
   ************* Construction=INSULATED PIPE
   ************* Construction=PLAIN PIPE
   ************* Construction=TDD PIPE
   ************* Construction=TDD DOME
   ************* Construction=TDD DIFFUSER
   ************* Construction=CRAWL WALL
   ************* Construction=CEILING-FLOOR-LAYER
   ************* Construction=SLAB CONSTRUCTION W FULL R10 INSULATION
   ************* Construction=SLAB CONSTRUCTION W FULL R5 INSULATION
   ** Warning ** GetDXCoils: Coil:Heating:DX:SingleSpeed="DX_HEATING_COIL" curve values
   **   ~~~   ** ... Defrost Energy Input Ratio Function of Temperature Curve Name = DEFROSTEIR output is not equal to 1.0 (+ or - 10%) at rated conditions.
   **   ~~~   ** ... Curve output at rated conditions = 0.152
   ************* Beginning System Sizing Calculations
   ************* Beginning Plant Sizing Calculations
   ** Warning ** Coil:WaterHeating:AirToWaterHeatPump:Wrapped "HEAT PUMP WATER HEATER EVAPORATOR": Rated air volume flow rate per watt of rated total water heating capacity is out of range
   **   ~~~   ** Min Rated Vol Flow Per Watt=[4.027E-005], Rated Vol Flow Per Watt=[1.510E-004], Max Rated Vol Flow Per Watt=[8.056E-005]. See Input-Output Reference Manual for valid range.
   ************* SizeFan: : Potential issue with equipment sizing for Fan:OnOff HEAT PUMP WATER HEATER FAN
   **   ~~~   ** User-Specified Maximum Flow Rate [m3/s] = 0.22653
   **   ~~~   ** differs from Design Size Maximum Flow Rate [m3/s] = 7.55250E-002
   **   ~~~   ** This may, or may not, indicate mismatched component sizes.
   **   ~~~   ** Verify that the value entered is intended and is consistent with other components.
   ** Warning ** Water heater = WATER HEATER TANK:  Recovery Efficiency and Energy Factor could not be calculated during the test for standard ratings
   **   ~~~   ** Setpoint was never recovered and/or heater never turned on
   ** Warning ** Check input. Pump nominal power or motor efficiency is set to 0, for pump=MAINS PRESSURE
   ** Warning ** Output:Meter: invalid Key Name="ELECTRIC_RANGE:INTERIOREQUIPMENT:ELECTRICITY" - not found.
   ** Warning ** Output:Meter: invalid Key Name="ELECTRIC_DRYER:INTERIOREQUIPMENT:ELECTRICITY" - not found.
   ** Warning ** Output:Meter: invalid Key Name="HEATRECOVERY:ELECTRICITY" - not found.
   ** Warning ** Output:Meter: invalid Key Name="HEATING:NATURALGAS" - not found.
   ** Warning ** Output:Meter: invalid Key Name="WATERSYSTEMS:NATURALGAS" - not found.
   ** Warning ** Output:Meter: invalid Key Name="PROPANE:FACILITY" - not found.
   ** Warning ** Output:Meter: invalid Key Name="HEATING:PROPANE" - not found.
   ************* Testing Individual Branch Integrity
   ************* All Branches passed integrity testing
   ************* Testing Individual Supply Air Path Integrity
   ************* All Supply Air Paths passed integrity testing
   ************* Testing Individual Return Air Path Integrity
   ************* All Return Air Paths passed integrity testing
   ************* No node connection errors were found.
   ************* Beginning Simulation
   ** Warning ** AirflowNetwork::Solver::validate_distribution: Heat pump water heater is simulated along with an AirflowNetwork but is not included in the AirflowNetwork.
   ** Warning ** CalcEquipmentFlowRates: "TOTAL HOT WATER LOAD" - Target water temperature is greater than the hot water temperature by (1.60 C)
   **   ~~~   **  Environment=EXTREME_WINTER, at Simulation time=01/06 03:45 - 04:00
   **   ~~~   ** ...target water temperature     = 53.33 C
   **   ~~~   ** ...hot water temperature        = 51.73 C
   **   ~~~   ** ...Target water temperature should be less than or equal to the hot water temperature. Verify temperature setpoints and schedules.
   ** Warning ** SimHVAC: Maximum iterations (20) exceeded for all HVAC loops, at ANNUAL, 01/02 19:30 - 19:45
   **   ~~~   ** The solution for one or more of the Air Loop HVAC systems did not appear to converge
   **   ~~~   ** Air System Named = CENTRAL SYSTEM did not converge for mass flow rate
   **   ~~~   ** Check values should be zero. Most Recent values listed first.
   **   ~~~   ** Demand-to-Supply interface mass flow rate check value iteration history trace: 6.007665E-002,6.007665E-002,6.007665E-002,6.007665E-002,6.007665E-002,6.007665E-002,6.007665E-002,6.007665E-002,6.007665E-002,6.007665E-002,
   **   ~~~   ** Supply-to-demand interface deck 1 mass flow rate check value iteration history trace: 6.007665E-002,6.007665E-002,6.007665E-002,6.007665E-002,6.007665E-002,6.007665E-002,6.007665E-002,6.007665E-002,6.007665E-002,6.007665E-002,
   **   ~~~   ** Air System Named = CENTRAL SYSTEM did not converge for energy
   **   ~~~   ** Check values should be zero. Most Recent values listed first.
   **   ~~~   ** Demand-to-Supply interface energy check value iteration history trace: 1188.316615,1188.316615,1188.316615,1188.316615,1188.316615,1188.316615,1188.316615,1188.316615,1188.316615,1188.316615,
   **   ~~~   ** Supply-to-demand interface deck 1 energy check value iteration history trace: 1897.635718,1897.635717,1897.635717,1897.635717,1897.635717,1897.635717,1897.635717,1897.635717,1897.635717,1897.635717,
   ** Warning ** SimHVAC: Maximum iterations (20) exceeded for all HVAC loops, at ANNUAL, 01/15 14:15 - 14:30
   **   ~~~   ** The solution for one or more of the Air Loop HVAC systems did not appear to converge
   **   ~~~   ** Air System Named = CENTRAL SYSTEM did not converge for mass flow rate
   **   ~~~   ** Check values should be zero. Most Recent values listed first.
   **   ~~~   ** Demand-to-Supply interface mass flow rate check value iteration history trace: 7.770326E-002,7.770326E-002,7.770326E-002,7.770326E-002,7.770326E-002,7.770326E-002,7.770326E-002,7.770326E-002,7.770326E-002,7.770326E-002,
   **   ~~~   ** Supply-to-demand interface deck 1 mass flow rate check value iteration history trace: 7.770326E-002,7.770326E-002,7.770326E-002,7.770326E-002,7.770326E-002,7.770326E-002,7.770326E-002,7.770326E-002,7.770326E-002,7.770326E-002,
   **   ~~~   ** Air System Named = CENTRAL SYSTEM did not converge for energy
   **   ~~~   ** Check values should be zero. Most Recent values listed first.
   **   ~~~   ** Demand-to-Supply interface energy check value iteration history trace: 1530.890979,1530.890979,1530.890979,1530.890979,1530.890979,1530.890979,1530.890979,1530.890979,1530.890978,1530.890978,
   **   ~~~   ** Supply-to-demand interface deck 1 energy check value iteration history trace: 2380.939386,2380.939386,2380.939385,2380.939385,2380.939385,2380.939385,2380.939385,2380.939385,2380.939384,2380.939384,
   ** Warning ** SimHVAC: Maximum iterations (20) exceeded for all HVAC loops, at ANNUAL, 01/20 13:23 - 13:30
   **   ~~~   ** The solution for one or more of the Air Loop HVAC systems did not appear to converge
   **   ~~~   ** Air System Named = CENTRAL SYSTEM did not converge for mass flow rate
   **   ~~~   ** Check values should be zero. Most Recent values listed first.
   **   ~~~   ** Demand-to-Supply interface mass flow rate check value iteration history trace: 6.316066E-002,6.316066E-002,6.316066E-002,6.316066E-002,6.316066E-002,6.316066E-002,6.316066E-002,6.316066E-002,6.316066E-002,6.316066E-002,
   **   ~~~   ** Supply-to-demand interface deck 1 mass flow rate check value iteration history trace: 6.316066E-002,6.316066E-002,6.316066E-002,6.316066E-002,6.316066E-002,6.316066E-002,6.316066E-002,6.316066E-002,6.316066E-002,6.316066E-002,
   **   ~~~   ** Air System Named = CENTRAL SYSTEM did not converge for energy
   **   ~~~   ** Check values should be zero. Most Recent values listed first.
   **   ~~~   ** Demand-to-Supply interface energy check value iteration history trace: 1251.159932,1251.159932,1251.159932,1251.159932,1251.159932,1251.159932,1251.159932,1251.159932,1251.159932,1251.159932,
   **   ~~~   ** Supply-to-demand interface deck 1 energy check value iteration history trace: 2007.865058,2007.865058,2007.865058,2007.865058,2007.865057,2007.865057,2007.865057,2007.865057,2007.865057,2007.865057,
   ** Warning ** SimHVAC: Maximum iterations (20) exceeded for all HVAC loops, at ANNUAL, 02/26 13:30 - 13:45
   **   ~~~   ** The solution for one or more of the Air Loop HVAC systems did not appear to converge
   **   ~~~   ** Air System Named = CENTRAL SYSTEM did not converge for mass flow rate
   **   ~~~   ** Check values should be zero. Most Recent values listed first.
   **   ~~~   ** Demand-to-Supply interface mass flow rate check value iteration history trace: 6.924586E-002,6.924586E-002,6.924586E-002,6.924586E-002,6.924586E-002,6.924586E-002,6.924586E-002,6.924586E-002,6.924586E-002,6.924586E-002,
   **   ~~~   ** Supply-to-demand interface deck 1 mass flow rate check value iteration history trace: 6.924586E-002,6.924586E-002,6.924586E-002,6.924586E-002,6.924586E-002,6.924586E-002,6.924586E-002,6.924586E-002,6.924586E-002,6.924586E-002,
   **   ~~~   ** Air System Named = CENTRAL SYSTEM did not converge for energy
   **   ~~~   ** Check values should be zero. Most Recent values listed first.
   **   ~~~   ** Demand-to-Supply interface energy check value iteration history trace: 1372.199809,1372.199809,1372.199809,1372.199809,1372.199809,1372.199809,1372.199809,1372.199809,1372.199809,1372.199809,
   **   ~~~   ** Supply-to-demand interface deck 1 energy check value iteration history trace: 2382.146026,2382.146026,2382.146026,2382.146026,2382.146026,2382.146026,2382.146026,2382.146026,2382.146025,2382.146025,
   ** Warning ** SimHVAC: Maximum iterations (20) exceeded for all HVAC loops, at ANNUAL, 03/11 15:30 - 15:45
   **   ~~~   ** The solution for one or more of the Air Loop HVAC systems did not appear to converge
   **   ~~~   ** Air System Named = CENTRAL SYSTEM did not converge for mass flow rate
   **   ~~~   ** Check values should be zero. Most Recent values listed first.
   **   ~~~   ** Demand-to-Supply interface mass flow rate check value iteration history trace: 1.479709E-002,1.479709E-002,1.479709E-002,1.479709E-002,1.479709E-002,1.479709E-002,1.479709E-002,1.479709E-002,1.479709E-002,1.479709E-002,
   **   ~~~   ** Supply-to-demand interface deck 1 mass flow rate check value iteration history trace: 1.479709E-002,1.479709E-002,1.479709E-002,1.479709E-002,1.479709E-002,1.479709E-002,1.479709E-002,1.479709E-002,1.479709E-002,1.479709E-002,
   **   ~~~   ** Air System Named = CENTRAL SYSTEM did not converge for energy
   **   ~~~   ** Check values should be zero. Most Recent values listed first.
   **   ~~~   ** Demand-to-Supply interface energy check value iteration history trace: 293.221650,293.221650,293.221650,293.221650,293.221650,293.221650,293.221650,293.221650,293.221650,293.221650,
   **   ~~~   ** Supply-to-demand interface deck 1 energy check value iteration history trace: 522.382728,522.382728,522.382728,522.382728,522.382728,522.382728,522.382728,522.382728,522.382727,522.382727,
   ** Warning ** SimHVAC: Maximum iterations (20) exceeded for all HVAC loops, at ANNUAL, 03/16 16:45 - 17:00
   **   ~~~   ** The solution for one or more of the Air Loop HVAC systems did not appear to converge
   **   ~~~   ** Air System Named = CENTRAL SYSTEM did not converge for mass flow rate
   **   ~~~   ** Check values should be zero. Most Recent values listed first.
   **   ~~~   ** Demand-to-Supply interface mass flow rate check value iteration history trace: 6.067831E-002,6.067831E-002,6.067831E-002,6.067831E-002,6.067831E-002,6.067831E-002,6.067831E-002,6.067831E-002,6.067831E-002,6.067831E-002,
   **   ~~~   ** Supply-to-demand interface deck 1 mass flow rate check value iteration history trace: 6.067831E-002,6.067831E-002,6.067831E-002,6.067831E-002,6.067831E-002,6.067831E-002,6.067831E-002,6.067831E-002,6.067831E-002,6.067831E-002,
   **   ~~~   ** Air System Named = CENTRAL SYSTEM did not converge for energy
   **   ~~~   ** Check values should be zero. Most Recent values listed first.
   **   ~~~   ** Demand-to-Supply interface energy check value iteration history trace: 1193.822914,1193.822914,1193.822914,1193.822914,1193.822914,1193.822914,1193.822914,1193.822914,1193.822914,1193.822914,
   **   ~~~   ** Supply-to-demand interface deck 1 energy check value iteration history trace: 2054.740914,2054.740914,2054.740914,2054.740914,2054.740914,2054.740913,2054.740913,2054.740913,2054.740913,2054.740913,
   ** Warning ** SimHVAC: Maximum iterations (20) exceeded for all HVAC loops, at ANNUAL, 04/11 07:45 - 08:00
   **   ~~~   ** The solution for one or more of the Air Loop HVAC systems did not appear to converge
   **   ~~~   ** Air System Named = CENTRAL SYSTEM did not converge for mass flow rate
   **   ~~~   ** Check values should be zero. Most Recent values listed first.
   **   ~~~   ** Demand-to-Supply interface mass flow rate check value iteration history trace: 6.732084E-002,6.732084E-002,6.732084E-002,6.732084E-002,6.732084E-002,6.732084E-002,6.732084E-002,6.732084E-002,6.732084E-002,6.732084E-002,
   **   ~~~   ** Supply-to-demand interface deck 1 mass flow rate check value iteration history trace: 6.732084E-002,6.732084E-002,6.732084E-002,6.732084E-002,6.732084E-002,6.732084E-002,6.732084E-002,6.732084E-002,6.732084E-002,6.732084E-002,
   **   ~~~   ** Air System Named = CENTRAL SYSTEM did not converge for energy
   **   ~~~   ** Check values should be zero. Most Recent values listed first.
   **   ~~~   ** Demand-to-Supply interface energy check value iteration history trace: 1334.042525,1334.042525,1334.042525,1334.042525,1334.042525,1334.042525,1334.042525,1334.042525,1334.042525,1334.042525,
   **   ~~~   ** Supply-to-demand interface deck 1 energy check value iteration history trace: 2313.921584,2313.921584,2313.921584,2313.921584,2313.921584,2313.921583,2313.921583,2313.921583,2313.921583,2313.921583,
   ** Warning ** SimHVAC: Maximum iterations (20) exceeded for all HVAC loops, at ANNUAL, 05/01 06:04 - 06:08
   **   ~~~   ** The solution for one or more of the Air Loop HVAC systems did not appear to converge
   **   ~~~   ** Air System Named = CENTRAL SYSTEM did not converge for mass flow rate
   **   ~~~   ** Check values should be zero. Most Recent values listed first.
   **   ~~~   ** Demand-to-Supply interface mass flow rate check value iteration history trace: 6.518545E-002,6.518545E-002,6.518545E-002,6.518545E-002,6.518545E-002,6.518545E-002,6.518545E-002,6.518545E-002,6.518545E-002,6.518545E-002,
   **   ~~~   ** Supply-to-demand interface deck 1 mass flow rate check value iteration history trace: 6.518545E-002,6.518545E-002,6.518545E-002,6.518545E-002,6.518545E-002,6.518545E-002,6.518545E-002,6.518545E-002,6.518545E-002,6.518545E-002,
   **   ~~~   ** Air System Named = CENTRAL SYSTEM did not converge for energy
   **   ~~~   ** Check values should be zero. Most Recent values listed first.
   **   ~~~   ** Demand-to-Supply interface energy check value iteration history trace: 1284.885944,1284.885944,1284.885944,1284.885944,1284.885944,1284.885944,1284.885944,1284.885944,1284.885944,1284.885944,
   **   ~~~   ** Supply-to-demand interface deck 1 energy check value iteration history trace: 2368.485184,2368.485184,2368.485183,2368.485183,2368.485183,2368.485183,2368.485183,2368.485183,2368.485183,2368.485183,
   ** Warning ** SimHVAC: Maximum iterations (20) exceeded for all HVAC loops, at ANNUAL, 10/24 13:53 - 14:00
   **   ~~~   ** The solution for one or more of the Air Loop HVAC systems did not appear to converge
   **   ~~~   ** Air System Named = CENTRAL SYSTEM did not converge for mass flow rate
   **   ~~~   ** Check values should be zero. Most Recent values listed first.
   **   ~~~   ** Demand-to-Supply interface mass flow rate check value iteration history trace: 0.185450,0.185450,0.185450,0.185450,0.185450,0.185450,0.185450,0.185450,0.185450,0.185450,
   **   ~~~   ** Supply-to-demand interface deck 1 mass flow rate check value iteration history trace: 0.185450,0.185450,0.185450,0.185450,0.185450,0.185450,0.185450,0.185450,0.185450,0.185450,
   **   ~~~   ** Air System Named = CENTRAL SYSTEM did not converge for energy
   **   ~~~   ** Check values should be zero. Most Recent values listed first.
   **   ~~~   ** Demand-to-Supply interface energy check value iteration history trace: 4418.637227,4418.637227,4418.637227,4418.637228,4418.637228,4418.637228,4418.637228,4418.637229,4418.637229,4418.637229,
   **   ~~~   ** Supply-to-demand interface deck 1 energy check value iteration history trace: 1923.895930,1923.895930,1923.895930,1923.895930,1923.895931,1923.895931,1923.895931,1923.895931,1923.895931,1923.895931,
   ** Warning ** SimHVAC: Maximum iterations (20) exceeded for all HVAC loops, at ANNUAL, 10/26 16:53 - 17:00
   **   ~~~   ** The solution for one or more of the Air Loop HVAC systems did not appear to converge
   **   ~~~   ** Air System Named = CENTRAL SYSTEM did not converge for mass flow rate
   **   ~~~   ** Check values should be zero. Most Recent values listed first.
   **   ~~~   ** Demand-to-Supply interface mass flow rate check value iteration history trace: 9.681029E-002,9.681029E-002,9.681029E-002,9.681029E-002,9.681029E-002,9.681029E-002,9.681029E-002,9.681029E-002,9.681029E-002,9.681029E-002,
   **   ~~~   ** Supply-to-demand interface deck 1 mass flow rate check value iteration history trace: 9.681029E-002,9.681029E-002,9.681029E-002,9.681029E-002,9.681029E-002,9.681029E-002,9.681029E-002,9.681029E-002,9.681029E-002,9.681029E-002,
   **   ~~~   ** Air System Named = CENTRAL SYSTEM did not converge for energy
   **   ~~~   ** Check values should be zero. Most Recent values listed first.
   **   ~~~   ** Demand-to-Supply interface energy check value iteration history trace: 2285.631549,2285.631550,2285.631550,2285.631551,2285.631551,2285.631551,2285.631552,2285.631552,2285.631553,2285.631553,
   **   ~~~   ** Supply-to-demand interface deck 1 energy check value iteration history trace: 1012.084330,1012.084331,1012.084331,1012.084331,1012.084331,1012.084331,1012.084331,1012.084332,1012.084332,1012.084332,
   ** Warning ** SimHVAC: Maximum iterations (20) exceeded for all HVAC loops, at ANNUAL, 10/26 20:45 - 21:00
   **   ~~~   ** The solution for one or more of the Air Loop HVAC systems did not appear to converge
   **   ~~~   ** Air System Named = CENTRAL SYSTEM did not converge for mass flow rate
   **   ~~~   ** Check values should be zero. Most Recent values listed first.
   **   ~~~   ** Demand-to-Supply interface mass flow rate check value iteration history trace: 9.877725E-002,9.877725E-002,9.877725E-002,9.877725E-002,9.877725E-002,9.877725E-002,9.877725E-002,9.877725E-002,9.877725E-002,9.877725E-002,
   **   ~~~   ** Supply-to-demand interface deck 1 mass flow rate check value iteration history trace: 9.877725E-002,9.877725E-002,9.877725E-002,9.877725E-002,9.877725E-002,9.877725E-002,9.877725E-002,9.877725E-002,9.877725E-002,9.877725E-002,
   **   ~~~   ** Air System Named = CENTRAL SYSTEM did not converge for energy
   **   ~~~   ** Check values should be zero. Most Recent values listed first.
   **   ~~~   ** Demand-to-Supply interface energy check value iteration history trace: 2358.646607,2358.646608,2358.646608,2358.646608,2358.646609,2358.646609,2358.646610,2358.646610,2358.646611,2358.646611,
   **   ~~~   ** Supply-to-demand interface deck 1 energy check value iteration history trace: 1056.753101,1056.753101,1056.753101,1056.753101,1056.753102,1056.753102,1056.753102,1056.753102,1056.753102,1056.753103,
   ** Warning ** SimHVAC: Maximum iterations (20) exceeded for all HVAC loops, at ANNUAL, 11/12 04:15 - 04:30
   **   ~~~   ** The solution for one or more of the Air Loop HVAC systems did not appear to converge
   **   ~~~   ** Air System Named = CENTRAL SYSTEM did not converge for mass flow rate
   **   ~~~   ** Check values should be zero. Most Recent values listed first.
   **   ~~~   ** Demand-to-Supply interface mass flow rate check value iteration history trace: 4.360080E-002,4.360080E-002,4.360080E-002,4.360080E-002,4.360080E-002,4.360080E-002,4.360080E-002,4.360080E-002,4.360080E-002,4.360080E-002,
   **   ~~~   ** Supply-to-demand interface deck 1 mass flow rate check value iteration history trace: 4.360080E-002,4.360080E-002,4.360080E-002,4.360080E-002,4.360080E-002,4.360080E-002,4.360080E-002,4.360080E-002,4.360080E-002,4.360080E-002,
   **   ~~~   ** Air System Named = CENTRAL SYSTEM did not converge for energy
   **   ~~~   ** Check values should be zero. Most Recent values listed first.
   **   ~~~   ** Demand-to-Supply interface energy check value iteration history trace: 815.159283,815.159283,815.159283,815.159283,815.159283,815.159283,815.159283,815.159283,815.159283,815.159283,
   **   ~~~   ** Supply-to-demand interface deck 1 energy check value iteration history trace: 1487.766489,1487.766489,1487.766489,1487.766489,1487.766489,1487.766488,1487.766488,1487.766488,1487.766488,1487.766488,
   ** Warning ** SimHVAC: Maximum iterations (20) exceeded for all HVAC loops, at ANNUAL, 11/13 18:45 - 19:00
   **   ~~~   ** The solution for one or more of the Air Loop HVAC systems did not appear to converge
   **   ~~~   ** Air System Named = CENTRAL SYSTEM did not converge for mass flow rate
   **   ~~~   ** Check values should be zero. Most Recent values listed first.
   **   ~~~   ** Demand-to-Supply interface mass flow rate check value iteration history trace: 7.492544E-002,7.492544E-002,7.492544E-002,7.492544E-002,7.492544E-002,7.492544E-002,7.492544E-002,7.492544E-002,7.492544E-002,7.492544E-002,
   **   ~~~   ** Supply-to-demand interface deck 1 mass flow rate check value iteration history trace: 7.492544E-002,7.492544E-002,7.492544E-002,7.492544E-002,7.492544E-002,7.492544E-002,7.492544E-002,7.492544E-002,7.492544E-002,7.492544E-002,
   **   ~~~   ** Air System Named = CENTRAL SYSTEM did not converge for energy
   **   ~~~   ** Check values should be zero. Most Recent values listed first.
   **   ~~~   ** Demand-to-Supply interface energy check value iteration history trace: 1482.429016,1482.429016,1482.429016,1482.429016,1482.429016,1482.429016,1482.429016,1482.429015,1482.429015,1482.429015,
   **   ~~~   ** Supply-to-demand interface deck 1 energy check value iteration history trace: 2332.693747,2332.693747,2332.693747,2332.693746,2332.693746,2332.693746,2332.693746,2332.693746,2332.693746,2332.693745,
   ** Warning ** SimHVAC: Maximum iterations (20) exceeded for all HVAC loops, at ANNUAL, 11/29 22:15 - 22:22
   **   ~~~   ** The solution for one or more of the Air Loop HVAC systems did not appear to converge
   **   ~~~   ** Air System Named = CENTRAL SYSTEM did not converge for mass flow rate
   **   ~~~   ** Check values should be zero. Most Recent values listed first.
   **   ~~~   ** Demand-to-Supply interface mass flow rate check value iteration history trace: 6.802569E-002,6.802569E-002,6.802569E-002,6.802569E-002,6.802569E-002,6.802569E-002,6.802569E-002,6.802569E-002,6.802569E-002,6.802569E-002,
   **   ~~~   ** Supply-to-demand interface deck 1 mass flow rate check value iteration history trace: 6.802569E-002,6.802569E-002,6.802569E-002,6.802569E-002,6.802569E-002,6.802569E-002,6.802569E-002,6.802569E-002,6.802569E-002,6.802569E-002,
   **   ~~~   ** Air System Named = CENTRAL SYSTEM did not converge for energy
   **   ~~~   ** Check values should be zero. Most Recent values listed first.
   **   ~~~   ** Demand-to-Supply interface energy check value iteration history trace: 1292.361999,1292.361999,1292.361999,1292.361999,1292.361999,1292.361999,1292.361999,1292.361999,1292.361998,1292.361998,
   **   ~~~   ** Supply-to-demand interface deck 1 energy check value iteration history trace: 2012.785279,2012.785279,2012.785279,2012.785278,2012.785278,2012.785278,2012.785278,2012.785278,2012.785278,2012.785278,
   ************* Simulation Error Summary *************
   ** Warning ** The following Report Variables were requested but not generated -- check.rdd file
   **   ~~~   ** Either the IDF did not contain these elements, the variable name is misspelled,
   **   ~~~   ** or the requested variable is an advanced output which requires Output : Diagnostics, DisplayAdvancedReportVariables;
   ************* Key=*, VarName=BASEBOARD TOTAL HEATING ENERGY, Frequency=
   ************* Key=*, VarName=WATER HEATER NATURALGAS ENERGY, Frequency=
   ************* Key=*, VarName=COOLING COIL TOTAL HEATING ENERGY, Frequency=
   ************* There are 34 unused schedules in input.
   ************* There are 388 unused week schedules in input.
   ************* There are 396 unused day schedules in input.
   ************* Use Output:Diagnostics,DisplayUnusedSchedules; to see them.
   *************
   ************* ===== Recurring Error Summary =====
   ************* The following recurring error messages occurred.
   *************
   *************  ** Warning ** "TOTAL HOT WATER LOAD" - Target water temperature should be less than or equal to the hot water temperature error continues...
   *************  **   ~~~   **   This error occurred 49463 total times;
   *************  **   ~~~   **   during Warmup 0 times;
   *************  **   ~~~   **   during Sizing 0 times.
   *************  **   ~~~   **   Max=6.632856  Min=1.853924E-003
   *************
   *************  ** Warning ** SimHVAC: Exceeding Maximum iterations for all HVAC loops, during ANNUAL continues
   *************  **   ~~~   **   This error occurred 2 total times;
   *************  **   ~~~   **   during Warmup 0 times;
   *************  **   ~~~   **   during Sizing 0 times.
   *************
   *************
   ************* ===== Final Error Summary =====
   ************* The following error categories occurred.  Consider correcting or noting.
   ************* Nominally Unused Constructions
   ************* ..The nominally unused constructions warning is provided to alert you to potential conditions that can cause
   ************* ..extra time during simulation. Each construction is calculated by the algorithm indicated in the HeatBalanceAlgorithm
   ************* ..object. You may remove the constructions indicated (when you use the DisplayExtraWarnings option).
   *************
   ************* EnergyPlus Warmup Error Summary. During Warmup: 1 Warning; 0 Severe Errors.
   ************* EnergyPlus Sizing Error Summary. During Sizing: 4 Warning; 0 Severe Errors.
   ************* EnergyPlus Completed Successfully-- 49496 Warning; 0 Severe Errors; Elapsed Time=00hr 01min 18.76sec
