Program Version,EnergyPlus, Version 22.2.0-c249759bad, YMD=2023.09.01 19:39,
   ************* Beginning Zone Sizing Calculations
   ** Warning ** ProcessScheduleInput: Schedule:Constant="ALWAYS ON DISCRETE", Schedule Type Limits Name="ONOFF" not found -- will not be validated
   ** Warning ** Foundation:Kiva="KIVA FOUNDATION", no Interior Horizontal Insulation Material Name defined
   **   ~~~   ** Interior Horizontal Insulation Depth will not be used.
   ** Warning ** CheckUsedConstructions: There are 15 nominally unused constructions in input.
   **   ~~~   ** Each Unused construction is shown.
   ************* Construction=INTERIOR FLOOR
   ************* Construction=INTERIOR WINDOW
   ************* Construction=EXTERIOR DOOR
   ************* Construction=INTERIOR DOOR
   ************* Construction=GABLE CONSTRUCTION
   ************* Construction=CRAWL_FLOOR
   ************* Construction=INSULATED PIPE
   ************* Construction=PLAIN PIPE
   ************* Construction=TDD PIPE
   ************* Construction=TDD DOME
   ************* Construction=TDD DIFFUSER
   ************* Construction=CRAWL WALL
   ************* Construction=CEILING-FLOOR-LAYER
   ************* Construction=SLAB CONSTRUCTION W FULL R10 INSULATION
   ************* Construction=SLAB CONSTRUCTION W FULL R5 INSULATION
   ** Warning ** GetDXCoils: Coil:Heating:DX:SingleSpeed="DX_HEATING_COIL" curve values
   **   ~~~   ** ... Defrost Energy Input Ratio Function of Temperature Curve Name = DEFROSTEIR output is not equal to 1.0 (+ or - 10%) at rated conditions.
   **   ~~~   ** ... Curve output at rated conditions = 0.152
   ************* Beginning System Sizing Calculations
   ************* Beginning Plant Sizing Calculations
   ** Warning ** Coil:WaterHeating:AirToWaterHeatPump:Wrapped "HEAT PUMP WATER HEATER EVAPORATOR": Rated air volume flow rate per watt of rated total water heating capacity is out of range
   **   ~~~   ** Min Rated Vol Flow Per Watt=[4.027E-005], Rated Vol Flow Per Watt=[1.510E-004], Max Rated Vol Flow Per Watt=[8.056E-005]. See Input-Output Reference Manual for valid range.
   ************* SizeFan: : Potential issue with equipment sizing for Fan:OnOff HEAT PUMP WATER HEATER FAN
   **   ~~~   ** User-Specified Maximum Flow Rate [m3/s] = 0.22653
   **   ~~~   ** differs from Design Size Maximum Flow Rate [m3/s] = 7.55250E-002
   **   ~~~   ** This may, or may not, indicate mismatched component sizes.
   **   ~~~   ** Verify that the value entered is intended and is consistent with other components.
   ** Warning ** Water heater = WATER HEATER TANK:  Recovery Efficiency and Energy Factor could not be calculated during the test for standard ratings
   **   ~~~   ** Setpoint was never recovered and/or heater never turned on
   ** Warning ** Check input. Pump nominal power or motor efficiency is set to 0, for pump=MAINS PRESSURE
   ** Warning ** AirflowNetwork::Solver::validate_distribution: Heat pump water heater is simulated along with an AirflowNetwork but is not included in the AirflowNetwork.
   ** Warning ** Output:Meter: invalid Key Name="ELECTRIC_RANGE:INTERIOREQUIPMENT:ELECTRICITY" - not found.
   ** Warning ** Output:Meter: invalid Key Name="ELECTRIC_DRYER:INTERIOREQUIPMENT:ELECTRICITY" - not found.
   ** Warning ** Output:Meter: invalid Key Name="HEATRECOVERY:ELECTRICITY" - not found.
   ** Warning ** Output:Meter: invalid Key Name="HEATING:NATURALGAS" - not found.
   ** Warning ** Output:Meter: invalid Key Name="WATERSYSTEMS:NATURALGAS" - not found.
   ** Warning ** Output:Meter: invalid Key Name="PROPANE:FACILITY" - not found.
   ** Warning ** Output:Meter: invalid Key Name="HEATING:PROPANE" - not found.
   ************* Testing Individual Branch Integrity
   ************* All Branches passed integrity testing
   ************* Testing Individual Supply Air Path Integrity
   ************* All Supply Air Paths passed integrity testing
   ************* Testing Individual Return Air Path Integrity
   ************* All Return Air Paths passed integrity testing
   ************* No node connection errors were found.
   ************* Beginning Simulation
   ** Warning ** CalcEquipmentFlowRates: "TOTAL HOT WATER LOAD" - Target water temperature is greater than the hot water temperature by (2.14 C)
   **   ~~~   **  Environment=EXTREME_WINTER, at Simulation time=01/08 06:00 - 06:15
   **   ~~~   ** ...target water temperature     = 53.33 C
   **   ~~~   ** ...hot water temperature        = 51.20 C
   **   ~~~   ** ...Target water temperature should be less than or equal to the hot water temperature. Verify temperature setpoints and schedules.
   ** Warning ** SimHVAC: Maximum iterations (20) exceeded for all HVAC loops, at ANNUAL, 02/19 17:23 - 17:26
   **   ~~~   ** The solution for one or more of the Air Loop HVAC systems did not appear to converge
   **   ~~~   ** Air System Named = CENTRAL SYSTEM did not converge for mass flow rate
   **   ~~~   ** Check values should be zero. Most Recent values listed first.
   **   ~~~   ** Demand-to-Supply interface mass flow rate check value iteration history trace: 9.489948E-002,9.489948E-002,9.489948E-002,9.489948E-002,9.489948E-002,9.489948E-002,9.489948E-002,9.489948E-002,9.489948E-002,9.489948E-002,
   **   ~~~   ** Supply-to-demand interface deck 1 mass flow rate check value iteration history trace: 9.489948E-002,9.489948E-002,9.489948E-002,9.489948E-002,9.489948E-002,9.489948E-002,9.489948E-002,9.489948E-002,9.489948E-002,9.489948E-002,
   **   ~~~   ** Air System Named = CENTRAL SYSTEM did not converge for energy
   **   ~~~   ** Check values should be zero. Most Recent values listed first.
   **   ~~~   ** Demand-to-Supply interface energy check value iteration history trace: 1880.366873,1880.366873,1880.366872,1880.366872,1880.366872,1880.366872,1880.366872,1880.366872,1880.366872,1880.366871,
   **   ~~~   ** Supply-to-demand interface deck 1 energy check value iteration history trace: 2779.777384,2779.777384,2779.777384,2779.777384,2779.777384,2779.777383,2779.777383,2779.777383,2779.777383,2779.777383,
   ** Warning ** SimHVAC: Maximum iterations (20) exceeded for all HVAC loops, at ANNUAL, 03/06 08:00 - 08:05
   **   ~~~   ** The solution for one or more of the Air Loop HVAC systems did not appear to converge
   **   ~~~   ** Air System Named = CENTRAL SYSTEM did not converge for mass flow rate
   **   ~~~   ** Check values should be zero. Most Recent values listed first.
   **   ~~~   ** Demand-to-Supply interface mass flow rate check value iteration history trace: 5.841102E-002,5.841102E-002,5.841102E-002,5.841102E-002,5.841102E-002,5.841102E-002,5.841102E-002,5.841102E-002,5.841102E-002,5.841102E-002,
   **   ~~~   ** Supply-to-demand interface deck 1 mass flow rate check value iteration history trace: 5.841102E-002,5.841102E-002,5.841102E-002,5.841102E-002,5.841102E-002,5.841102E-002,5.841102E-002,5.841102E-002,5.841102E-002,5.841102E-002,
   **   ~~~   ** Air System Named = CENTRAL SYSTEM did not converge for energy
   **   ~~~   ** Check values should be zero. Most Recent values listed first.
   **   ~~~   ** Demand-to-Supply interface energy check value iteration history trace: 1157.480448,1157.480448,1157.480448,1157.480448,1157.480448,1157.480448,1157.480448,1157.480448,1157.480448,1157.480448,
   **   ~~~   ** Supply-to-demand interface deck 1 energy check value iteration history trace: 2050.959277,2050.959277,2050.959277,2050.959276,2050.959276,2050.959276,2050.959276,2050.959276,2050.959276,2050.959276,
   ** Warning ** SimHVAC: Maximum iterations (20) exceeded for all HVAC loops, at ANNUAL, 03/06 08:15 - 08:30
   **   ~~~   ** The solution for one or more of the Air Loop HVAC systems did not appear to converge
   **   ~~~   ** Air System Named = CENTRAL SYSTEM did not converge for mass flow rate
   **   ~~~   ** Check values should be zero. Most Recent values listed first.
   **   ~~~   ** Demand-to-Supply interface mass flow rate check value iteration history trace: 4.773994E-002,4.773994E-002,4.773994E-002,4.773994E-002,4.773994E-002,4.773994E-002,4.773994E-002,4.773994E-002,4.773994E-002,4.773994E-002,
   **   ~~~   ** Supply-to-demand interface deck 1 mass flow rate check value iteration history trace: 4.773994E-002,4.773994E-002,4.773994E-002,4.773994E-002,4.773994E-002,4.773994E-002,4.773994E-002,4.773994E-002,4.773994E-002,4.773994E-002,
   **   ~~~   ** Air System Named = CENTRAL SYSTEM did not converge for energy
   **   ~~~   ** Check values should be zero. Most Recent values listed first.
   **   ~~~   ** Demand-to-Supply interface energy check value iteration history trace: 941.986107,941.986107,941.986107,941.986107,941.986107,941.986107,941.986107,941.986107,941.986107,941.986107,
   **   ~~~   ** Supply-to-demand interface deck 1 energy check value iteration history trace: 1680.099719,1680.099719,1680.099719,1680.099719,1680.099719,1680.099719,1680.099719,1680.099719,1680.099719,1680.099719,
   ** Warning ** SimHVAC: Maximum iterations (20) exceeded for all HVAC loops, at ANNUAL, 03/16 09:17 - 09:19
   **   ~~~   ** The solution for one or more of the Air Loop HVAC systems did not appear to converge
   **   ~~~   ** Air System Named = CENTRAL SYSTEM did not converge for mass flow rate
   **   ~~~   ** Check values should be zero. Most Recent values listed first.
   **   ~~~   ** Demand-to-Supply interface mass flow rate check value iteration history trace: 5.659219E-002,5.659219E-002,5.659219E-002,5.659219E-002,5.659219E-002,5.659219E-002,5.659219E-002,5.659219E-002,5.659219E-002,5.659219E-002,
   **   ~~~   ** Supply-to-demand interface deck 1 mass flow rate check value iteration history trace: 5.659219E-002,5.659219E-002,5.659219E-002,5.659219E-002,5.659219E-002,5.659219E-002,5.659219E-002,5.659219E-002,5.659219E-002,5.659219E-002,
   **   ~~~   ** Air System Named = CENTRAL SYSTEM did not converge for energy
   **   ~~~   ** Check values should be zero. Most Recent values listed first.
   **   ~~~   ** Demand-to-Supply interface energy check value iteration history trace: 1118.171174,1118.171174,1118.171174,1118.171174,1118.171174,1118.171174,1118.171174,1118.171174,1118.171174,1118.171174,
   **   ~~~   ** Supply-to-demand interface deck 1 energy check value iteration history trace: 1995.345224,1995.345224,1995.345224,1995.345224,1995.345223,1995.345223,1995.345223,1995.345223,1995.345223,1995.345223,
   ** Warning ** SimHVAC: Maximum iterations (20) exceeded for all HVAC loops, at ANNUAL, 03/18 08:27 - 08:30
   **   ~~~   ** The solution for one or more of the Air Loop HVAC systems did not appear to converge
   **   ~~~   ** Air System Named = CENTRAL SYSTEM did not converge for mass flow rate
   **   ~~~   ** Check values should be zero. Most Recent values listed first.
   **   ~~~   ** Demand-to-Supply interface mass flow rate check value iteration history trace: 6.242101E-002,6.242101E-002,6.242101E-002,6.242101E-002,6.242101E-002,6.242101E-002,6.242101E-002,6.242101E-002,6.242101E-002,6.242101E-002,
   **   ~~~   ** Supply-to-demand interface deck 1 mass flow rate check value iteration history trace: 6.242101E-002,6.242101E-002,6.242101E-002,6.242101E-002,6.242101E-002,6.242101E-002,6.242101E-002,6.242101E-002,6.242101E-002,6.242101E-002,
   **   ~~~   ** Air System Named = CENTRAL SYSTEM did not converge for energy
   **   ~~~   ** Check values should be zero. Most Recent values listed first.
   **   ~~~   ** Demand-to-Supply interface energy check value iteration history trace: 1235.503846,1235.503846,1235.503846,1235.503846,1235.503845,1235.503845,1235.503845,1235.503845,1235.503845,1235.503845,
   **   ~~~   ** Supply-to-demand interface deck 1 energy check value iteration history trace: 2206.922017,2206.922017,2206.922016,2206.922016,2206.922016,2206.922016,2206.922016,2206.922016,2206.922016,2206.922016,
   ** Warning ** SimHVAC: Maximum iterations (20) exceeded for all HVAC loops, at ANNUAL, 03/29 16:15 - 16:30
   **   ~~~   ** The solution for one or more of the Air Loop HVAC systems did not appear to converge
   **   ~~~   ** Air System Named = CENTRAL SYSTEM did not converge for mass flow rate
   **   ~~~   ** Check values should be zero. Most Recent values listed first.
   **   ~~~   ** Demand-to-Supply interface mass flow rate check value iteration history trace: 7.972004E-002,7.972004E-002,7.972004E-002,7.972004E-002,7.972004E-002,7.972004E-002,7.972004E-002,7.972004E-002,7.972004E-002,7.972004E-002,
   **   ~~~   ** Supply-to-demand interface deck 1 mass flow rate check value iteration history trace: 7.972004E-002,7.972004E-002,7.972004E-002,7.972004E-002,7.972004E-002,7.972004E-002,7.972004E-002,7.972004E-002,7.972004E-002,7.972004E-002,
   **   ~~~   ** Air System Named = CENTRAL SYSTEM did not converge for energy
   **   ~~~   ** Check values should be zero. Most Recent values listed first.
   **   ~~~   ** Demand-to-Supply interface energy check value iteration history trace: 1576.523436,1576.523435,1576.523435,1576.523435,1576.523435,1576.523435,1576.523435,1576.523435,1576.523435,1576.523435,
   **   ~~~   ** Supply-to-demand interface deck 1 energy check value iteration history trace: 2525.484291,2525.484291,2525.484291,2525.484291,2525.484291,2525.484291,2525.484290,2525.484290,2525.484290,2525.484290,
   ** Warning ** SimHVAC: Maximum iterations (20) exceeded for all HVAC loops, at ANNUAL, 04/01 23:45 - 24:00
   **   ~~~   ** The solution for one or more of the Air Loop HVAC systems did not appear to converge
   **   ~~~   ** Air System Named = CENTRAL SYSTEM did not converge for mass flow rate
   **   ~~~   ** Check values should be zero. Most Recent values listed first.
   **   ~~~   ** Demand-to-Supply interface mass flow rate check value iteration history trace: 4.285009E-002,4.285009E-002,4.285009E-002,4.285009E-002,4.285009E-002,4.285009E-002,4.285009E-002,4.285009E-002,4.285009E-002,4.285009E-002,
   **   ~~~   ** Supply-to-demand interface deck 1 mass flow rate check value iteration history trace: 4.285009E-002,4.285009E-002,4.285009E-002,4.285009E-002,4.285009E-002,4.285009E-002,4.285009E-002,4.285009E-002,4.285009E-002,4.285009E-002,
   **   ~~~   ** Air System Named = CENTRAL SYSTEM did not converge for energy
   **   ~~~   ** Check values should be zero. Most Recent values listed first.
   **   ~~~   ** Demand-to-Supply interface energy check value iteration history trace: 797.277060,797.277060,797.277060,797.277060,797.277059,797.277059,797.277059,797.277059,797.277059,797.277059,
   **   ~~~   ** Supply-to-demand interface deck 1 energy check value iteration history trace: 1529.026727,1529.026727,1529.026727,1529.026727,1529.026727,1529.026727,1529.026727,1529.026727,1529.026727,1529.026726,
   ** Warning ** SimHVAC: Maximum iterations (20) exceeded for all HVAC loops, at ANNUAL, 04/12 08:30 - 08:32
   **   ~~~   ** The solution for one or more of the Air Loop HVAC systems did not appear to converge
   **   ~~~   ** Air System Named = CENTRAL SYSTEM did not converge for mass flow rate
   **   ~~~   ** Check values should be zero. Most Recent values listed first.
   **   ~~~   ** Demand-to-Supply interface mass flow rate check value iteration history trace: 6.083217E-002,6.083217E-002,6.083217E-002,6.083217E-002,6.083217E-002,6.083217E-002,6.083217E-002,6.083217E-002,6.083217E-002,6.083217E-002,
   **   ~~~   ** Supply-to-demand interface deck 1 mass flow rate check value iteration history trace: 6.083217E-002,6.083217E-002,6.083217E-002,6.083217E-002,6.083217E-002,6.083217E-002,6.083217E-002,6.083217E-002,6.083217E-002,6.083217E-002,
   **   ~~~   ** Air System Named = CENTRAL SYSTEM did not converge for energy
   **   ~~~   ** Check values should be zero. Most Recent values listed first.
   **   ~~~   ** Demand-to-Supply interface energy check value iteration history trace: 1205.518454,1205.518454,1205.518454,1205.518454,1205.518454,1205.518454,1205.518453,1205.518453,1205.518453,1205.518453,
   **   ~~~   ** Supply-to-demand interface deck 1 energy check value iteration history trace: 2103.219299,2103.219299,2103.219299,2103.219299,2103.219299,2103.219299,2103.219299,2103.219299,2103.219299,2103.219299,
   ** Warning ** SimHVAC: Maximum iterations (20) exceeded for all HVAC loops, at ANNUAL, 04/12 12:00 - 12:15
   **   ~~~   ** The solution for one or more of the Air Loop HVAC systems did not appear to converge
   **   ~~~   ** Air System Named = CENTRAL SYSTEM did not converge for mass flow rate
   **   ~~~   ** Check values should be zero. Most Recent values listed first.
   **   ~~~   ** Demand-to-Supply interface mass flow rate check value iteration history trace: 5.049914E-002,5.049914E-002,5.049914E-002,5.049914E-002,5.049914E-002,5.049914E-002,5.049914E-002,5.049914E-002,5.049914E-002,5.049914E-002,
   **   ~~~   ** Supply-to-demand interface deck 1 mass flow rate check value iteration history trace: 5.049914E-002,5.049914E-002,5.049914E-002,5.049914E-002,5.049914E-002,5.049914E-002,5.049914E-002,5.049914E-002,5.049914E-002,5.049914E-002,
   **   ~~~   ** Air System Named = CENTRAL SYSTEM did not converge for energy
   **   ~~~   ** Check values should be zero. Most Recent values listed first.
   **   ~~~   ** Demand-to-Supply interface energy check value iteration history trace: 1000.627821,1000.627821,1000.627821,1000.627820,1000.627820,1000.627820,1000.627820,1000.627820,1000.627820,1000.627819,
   **   ~~~   ** Supply-to-demand interface deck 1 energy check value iteration history trace: 1838.485168,1838.485167,1838.485167,1838.485167,1838.485166,1838.485166,1838.485166,1838.485166,1838.485165,1838.485165,
   **   ~~~   ** Node named ZONE INLET NODE shows oscillating temperatures across iterations with a repeated value of 36.230771
   **   ~~~   ** Node named ZONE INLET NODE temperature [C] iteration history trace (most recent first): 36.230771,36.230771,36.230771,36.230771,36.230770,36.230770,36.230770,36.230770,36.230769,36.230769,
   ** Warning ** SimHVAC: Maximum iterations (20) exceeded for all HVAC loops, at ANNUAL, 04/19 01:05 - 01:10
   **   ~~~   ** The solution for one or more of the Air Loop HVAC systems did not appear to converge
   **   ~~~   ** Air System Named = CENTRAL SYSTEM did not converge for mass flow rate
   **   ~~~   ** Check values should be zero. Most Recent values listed first.
   **   ~~~   ** Demand-to-Supply interface mass flow rate check value iteration history trace: 5.719330E-002,5.719330E-002,5.719330E-002,5.719330E-002,5.719330E-002,5.719330E-002,5.719330E-002,5.719330E-002,5.719330E-002,5.719330E-002,
   **   ~~~   ** Supply-to-demand interface deck 1 mass flow rate check value iteration history trace: 5.719330E-002,5.719330E-002,5.719330E-002,5.719330E-002,5.719330E-002,5.719330E-002,5.719330E-002,5.719330E-002,5.719330E-002,5.719330E-002,
   **   ~~~   ** Air System Named = CENTRAL SYSTEM did not converge for energy
   **   ~~~   ** Check values should be zero. Most Recent values listed first.
   **   ~~~   ** Demand-to-Supply interface energy check value iteration history trace: 1065.751962,1065.751962,1065.751962,1065.751962,1065.751962,1065.751961,1065.751961,1065.751961,1065.751961,1065.751961,
   **   ~~~   ** Supply-to-demand interface deck 1 energy check value iteration history trace: 1877.236782,1877.236782,1877.236782,1877.236782,1877.236782,1877.236782,1877.236782,1877.236782,1877.236782,1877.236782,
   ** Warning ** SimHVAC: Maximum iterations (20) exceeded for all HVAC loops, at ANNUAL, 04/30 08:32 - 08:35
   **   ~~~   ** The solution for one or more of the Air Loop HVAC systems did not appear to converge
   **   ~~~   ** Air System Named = CENTRAL SYSTEM did not converge for mass flow rate
   **   ~~~   ** Check values should be zero. Most Recent values listed first.
   **   ~~~   ** Demand-to-Supply interface mass flow rate check value iteration history trace: 8.006540E-002,8.006540E-002,8.006540E-002,8.006540E-002,8.006540E-002,8.006540E-002,8.006540E-002,8.006540E-002,8.006540E-002,8.006540E-002,
   **   ~~~   ** Supply-to-demand interface deck 1 mass flow rate check value iteration history trace: 8.006540E-002,8.006540E-002,8.006540E-002,8.006540E-002,8.006540E-002,8.006540E-002,8.006540E-002,8.006540E-002,8.006540E-002,8.006540E-002,
   **   ~~~   ** Air System Named = CENTRAL SYSTEM did not converge for energy
   **   ~~~   ** Check values should be zero. Most Recent values listed first.
   **   ~~~   ** Demand-to-Supply interface energy check value iteration history trace: 1586.755822,1586.755822,1586.755822,1586.755822,1586.755822,1586.755822,1586.755822,1586.755822,1586.755822,1586.755822,
   **   ~~~   ** Supply-to-demand interface deck 1 energy check value iteration history trace: 2492.013855,2492.013855,2492.013855,2492.013855,2492.013855,2492.013855,2492.013854,2492.013854,2492.013854,2492.013854,
   ** Warning ** SimHVAC: Maximum iterations (20) exceeded for all HVAC loops, at ANNUAL, 04/30 21:45 - 22:00
   **   ~~~   ** The solution for one or more of the Air Loop HVAC systems did not appear to converge
   **   ~~~   ** Air System Named = CENTRAL SYSTEM did not converge for mass flow rate
   **   ~~~   ** Check values should be zero. Most Recent values listed first.
   **   ~~~   ** Demand-to-Supply interface mass flow rate check value iteration history trace: 8.472954E-002,8.472954E-002,8.472954E-002,8.472954E-002,8.472954E-002,8.472954E-002,8.472954E-002,8.472954E-002,8.472954E-002,8.472954E-002,
   **   ~~~   ** Supply-to-demand interface deck 1 mass flow rate check value iteration history trace: 8.472954E-002,8.472954E-002,8.472954E-002,8.472954E-002,8.472954E-002,8.472954E-002,8.472954E-002,8.472954E-002,8.472954E-002,8.472954E-002,
   **   ~~~   ** Air System Named = CENTRAL SYSTEM did not converge for energy
   **   ~~~   ** Check values should be zero. Most Recent values listed first.
   **   ~~~   ** Demand-to-Supply interface energy check value iteration history trace: 1650.362812,1650.362812,1650.362812,1650.362812,1650.362812,1650.362812,1650.362812,1650.362812,1650.362812,1650.362811,
   **   ~~~   ** Supply-to-demand interface deck 1 energy check value iteration history trace: 2572.227225,2572.227225,2572.227225,2572.227225,2572.227225,2572.227224,2572.227224,2572.227224,2572.227224,2572.227224,
   ** Warning ** SimHVAC: Maximum iterations (20) exceeded for all HVAC loops, at ANNUAL, 06/18 00:23 - 00:30
   **   ~~~   ** The solution for one or more of the Air Loop HVAC systems did not appear to converge
   **   ~~~   ** Air System Named = CENTRAL SYSTEM did not converge for mass flow rate
   **   ~~~   ** Check values should be zero. Most Recent values listed first.
   **   ~~~   ** Demand-to-Supply interface mass flow rate check value iteration history trace: 9.454573E-002,9.454573E-002,9.454573E-002,9.454573E-002,9.454573E-002,9.454573E-002,9.454573E-002,9.454573E-002,9.454573E-002,9.454573E-002,
   **   ~~~   ** Supply-to-demand interface deck 1 mass flow rate check value iteration history trace: 9.454573E-002,9.454573E-002,9.454573E-002,9.454573E-002,9.454573E-002,9.454573E-002,9.454573E-002,9.454573E-002,9.454573E-002,9.454573E-002,
   **   ~~~   ** Air System Named = CENTRAL SYSTEM did not converge for energy
   **   ~~~   ** Check values should be zero. Most Recent values listed first.
   **   ~~~   ** Demand-to-Supply interface energy check value iteration history trace: 2326.213138,2326.213138,2326.213138,2326.213139,2326.213139,2326.213139,2326.213139,2326.213139,2326.213139,2326.213139,
   **   ~~~   ** Supply-to-demand interface deck 1 energy check value iteration history trace: 1201.115930,1201.115931,1201.115931,1201.115931,1201.115931,1201.115931,1201.115931,1201.115931,1201.115931,1201.115931,
   ** Warning ** SimHVAC: Maximum iterations (20) exceeded for all HVAC loops, at ANNUAL, 10/02 06:00 - 06:15
   **   ~~~   ** The solution for one or more of the Air Loop HVAC systems did not appear to converge
   **   ~~~   ** Air System Named = CENTRAL SYSTEM did not converge for mass flow rate
   **   ~~~   ** Check values should be zero. Most Recent values listed first.
   **   ~~~   ** Demand-to-Supply interface mass flow rate check value iteration history trace: 5.372495E-002,5.372495E-002,5.372495E-002,5.372495E-002,5.372495E-002,5.372495E-002,5.372495E-002,5.372495E-002,5.372495E-002,5.372495E-002,
   **   ~~~   ** Supply-to-demand interface deck 1 mass flow rate check value iteration history trace: 5.372495E-002,5.372495E-002,5.372495E-002,5.372495E-002,5.372495E-002,5.372495E-002,5.372495E-002,5.372495E-002,5.372495E-002,5.372495E-002,
   **   ~~~   ** Air System Named = CENTRAL SYSTEM did not converge for energy
   **   ~~~   ** Check values should be zero. Most Recent values listed first.
   **   ~~~   ** Demand-to-Supply interface energy check value iteration history trace: 1063.931801,1063.931801,1063.931801,1063.931801,1063.931801,1063.931801,1063.931801,1063.931801,1063.931801,1063.931800,
   **   ~~~   ** Supply-to-demand interface deck 1 energy check value iteration history trace: 1921.605437,1921.605437,1921.605437,1921.605437,1921.605437,1921.605437,1921.605437,1921.605437,1921.605436,1921.605436,
   ************* Simulation Error Summary *************
   ** Warning ** The following Report Variables were requested but not generated -- check.rdd file
   **   ~~~   ** Either the IDF did not contain these elements, the variable name is misspelled,
   **   ~~~   ** or the requested variable is an advanced output which requires Output : Diagnostics, DisplayAdvancedReportVariables;
   ************* Key=*, VarName=BASEBOARD TOTAL HEATING ENERGY, Frequency=
   ************* Key=*, VarName=WATER HEATER NATURALGAS ENERGY, Frequency=
   ************* Key=*, VarName=COOLING COIL TOTAL HEATING ENERGY, Frequency=
   ************* There are 34 unused schedules in input.
   ************* There are 388 unused week schedules in input.
   ************* There are 396 unused day schedules in input.
   ************* Use Output:Diagnostics,DisplayUnusedSchedules; to see them.
   *************
   ************* ===== Recurring Error Summary =====
   ************* The following recurring error messages occurred.
   *************
   *************  ** Warning ** "TOTAL HOT WATER LOAD" - Target water temperature should be less than or equal to the hot water temperature error continues...
   *************  **   ~~~   **   This error occurred 106145 total times;
   *************  **   ~~~   **   during Warmup 0 times;
   *************  **   ~~~   **   during Sizing 0 times.
   *************  **   ~~~   **   Max=10.314411  Min=2.044506E-004
   *************
   *************  ** Warning ** SimHVAC: Exceeding Maximum iterations for all HVAC loops, during ANNUAL continues
   *************  **   ~~~   **   This error occurred 3 total times;
   *************  **   ~~~   **   during Warmup 0 times;
   *************  **   ~~~   **   during Sizing 0 times.
   *************
   *************
   ************* ===== Final Error Summary =====
   ************* The following error categories occurred.  Consider correcting or noting.
   ************* Nominally Unused Constructions
   ************* ..The nominally unused constructions warning is provided to alert you to potential conditions that can cause
   ************* ..extra time during simulation. Each construction is calculated by the algorithm indicated in the HeatBalanceAlgorithm
   ************* ..object. You may remove the constructions indicated (when you use the DisplayExtraWarnings option).
   *************
   ************* EnergyPlus Warmup Error Summary. During Warmup: 0 Warning; 0 Severe Errors.
   ************* EnergyPlus Sizing Error Summary. During Sizing: 4 Warning; 0 Severe Errors.
   ************* EnergyPlus Completed Successfully-- 106179 Warning; 0 Severe Errors; Elapsed Time=00hr 01min 23.23sec
