Program Version,EnergyPlus, Version 22.2.0-c249759bad, YMD=2023.09.01 14:22,
   ************* Beginning Zone Sizing Calculations
   ** Warning ** ProcessScheduleInput: Schedule:Constant="ALWAYS ON DISCRETE", Schedule Type Limits Name="ONOFF" not found -- will not be validated
   ** Warning ** Foundation:Kiva="KIVA FOUNDATION", no Interior Horizontal Insulation Material Name defined
   **   ~~~   ** Interior Horizontal Insulation Depth will not be used.
   ** Warning ** CheckUsedConstructions: There are 15 nominally unused constructions in input.
   **   ~~~   ** Each Unused construction is shown.
   ************* Construction=INTERIOR FLOOR
   ************* Construction=INTERIOR WINDOW
   ************* Construction=EXTERIOR DOOR
   ************* Construction=INTERIOR DOOR
   ************* Construction=GABLE CONSTRUCTION
   ************* Construction=CRAWL_FLOOR
   ************* Construction=INSULATED PIPE
   ************* Construction=PLAIN PIPE
   ************* Construction=TDD PIPE
   ************* Construction=TDD DOME
   ************* Construction=TDD DIFFUSER
   ************* Construction=CRAWL WALL
   ************* Construction=CEILING-FLOOR-LAYER
   ************* Construction=SLAB CONSTRUCTION W FULL R10 INSULATION
   ************* Construction=SLAB CONSTRUCTION W FULL R5 INSULATION
   ** Warning ** GetDXCoils: Coil:Heating:DX:SingleSpeed="DX_HEATING_COIL" curve values
   **   ~~~   ** ... Defrost Energy Input Ratio Function of Temperature Curve Name = DEFROSTEIR output is not equal to 1.0 (+ or - 10%) at rated conditions.
   **   ~~~   ** ... Curve output at rated conditions = 0.152
   ** Severe  ** WaterHeater:HeatPump:WrappedCondenser="WATER HEATER":
   **   ~~~   ** The HPWH's air inlet node name = ZONE EXHAUST NODE was not properly specified 
   **   ~~~   ** as an exhaust air node for zone = CRAWLSPACE in a ZoneHVAC:EquipmentConnections object.
   ** Severe  ** WaterHeater:HeatPump:WrappedCondenser="WATER HEATER":
   **   ~~~   ** The HPWH's air outlet node name = HPWH ZONE INLET NODE was not properly specified 
   **   ~~~   ** as an inlet air node for zone = CRAWLSPACE in a ZoneHVAC:EquipmentConnections object.
   ** Severe  ** WaterHeater:HeatPump:WrappedCondenser = WATER HEATER:
   **   ~~~   ** Heat pump water heater type and name must be listed in the correct ZoneHVAC:EquipmentList object when Inlet Air Configuration is equal to ZoneAirOnly or ZoneAndOutdoorAir.
   ************* Beginning System Sizing Calculations
   ************* Beginning Plant Sizing Calculations
   ** Warning ** SizeDXCoil Coil:Cooling:DX:SingleSpeed DX_COOLING_COIL
   **   ~~~   ** ...Gross Rated Total Cooling Capacity [W] will be limited by the maximum rated volume flow per rated total capacity ratio.
   **   ~~~   ** ...DX coil volume flow rate ( m3/s ) = 0.214646
   **   ~~~   ** ...Requested capacity ( W ) = 3144.434
   **   ~~~   ** ...Requested flow/capacity ratio ( m3/s/W ) = 6.826E-005
   **   ~~~   ** ...Maximum flow/capacity ratio ( m3/s/W ) = 6.041E-005
   **   ~~~   ** ...Adjusted capacity ( W ) = 3553.169
   ** Warning ** Coil:WaterHeating:AirToWaterHeatPump:Wrapped "HEAT PUMP WATER HEATER EVAPORATOR": Rated air volume flow rate per watt of rated total water heating capacity is out of range
   **   ~~~   ** Min Rated Vol Flow Per Watt=[4.027E-005], Rated Vol Flow Per Watt=[1.386E-004], Max Rated Vol Flow Per Watt=[8.056E-005]. See Input-Output Reference Manual for valid range.
   ** Warning ** Water heater = WATER HEATER TANK:  Recovery Efficiency and Energy Factor could not be calculated during the test for standard ratings
   **   ~~~   ** Setpoint was never recovered and/or heater never turned on
   ** Warning ** Check input. Pump nominal power or motor efficiency is set to 0, for pump=MAINS PRESSURE
   ** Warning ** Output:Meter: invalid Key Name="ELECTRIC_RANGE:INTERIOREQUIPMENT:ELECTRICITY" - not found.
   ** Warning ** Output:Meter: invalid Key Name="ELECTRIC_DRYER:INTERIOREQUIPMENT:ELECTRICITY" - not found.
   ** Warning ** Output:Meter: invalid Key Name="HEATRECOVERY:ELECTRICITY" - not found.
   ** Warning ** Output:Meter: invalid Key Name="HEATING:NATURALGAS" - not found.
   ** Warning ** Output:Meter: invalid Key Name="WATERSYSTEMS:NATURALGAS" - not found.
   ** Warning ** Output:Meter: invalid Key Name="PROPANE:FACILITY" - not found.
   ** Warning ** Output:Meter: invalid Key Name="HEATING:PROPANE" - not found.
   ************* Testing Individual Branch Integrity
   ************* All Branches passed integrity testing
   ************* Testing Individual Supply Air Path Integrity
   ************* All Supply Air Paths passed integrity testing
   ************* Testing Individual Return Air Path Integrity
   ************* All Return Air Paths passed integrity testing
   ************* No node connection errors were found.
   ************* Beginning Simulation
   ** Warning ** AirflowNetwork::Solver::validate_distribution: Heat pump water heater is simulated along with an AirflowNetwork but is not included in the AirflowNetwork.
   ** Warning ** CalcEquipmentFlowRates: "TOTAL HOT WATER LOAD" - Target water temperature is greater than the hot water temperature by (1.68 C)
   **   ~~~   **  Environment=EXTREME_WINTER, at Simulation time=01/01 06:00 - 06:15
   **   ~~~   ** ...target water temperature     = 53.33 C
   **   ~~~   ** ...hot water temperature        = 51.65 C
   **   ~~~   ** ...Target water temperature should be less than or equal to the hot water temperature. Verify temperature setpoints and schedules.
   ** Warning ** SimHVAC: Maximum iterations (20) exceeded for all HVAC loops, at ANNUAL, 01/01 09:45 - 09:52
   **   ~~~   ** The solution for one or more of the Air Loop HVAC systems did not appear to converge
   **   ~~~   ** Air System Named = CENTRAL SYSTEM did not converge for mass flow rate
   **   ~~~   ** Check values should be zero. Most Recent values listed first.
   **   ~~~   ** Demand-to-Supply interface mass flow rate check value iteration history trace: 8.915396E-002,8.915396E-002,8.915396E-002,8.915396E-002,8.915396E-002,8.915396E-002,8.915396E-002,8.915396E-002,8.915396E-002,8.915396E-002,
   **   ~~~   ** Supply-to-demand interface deck 1 mass flow rate check value iteration history trace: 8.915396E-002,8.915396E-002,8.915396E-002,8.915396E-002,8.915396E-002,8.915396E-002,8.915396E-002,8.915396E-002,8.915396E-002,8.915396E-002,
   **   ~~~   ** Air System Named = CENTRAL SYSTEM did not converge for energy
   **   ~~~   ** Check values should be zero. Most Recent values listed first.
   **   ~~~   ** Demand-to-Supply interface energy check value iteration history trace: 1759.240550,1759.240550,1759.240549,1759.240549,1759.240549,1759.240549,1759.240549,1759.240549,1759.240549,1759.240549,
   **   ~~~   ** Supply-to-demand interface deck 1 energy check value iteration history trace: 3040.078474,3040.078474,3040.078474,3040.078474,3040.078473,3040.078473,3040.078473,3040.078473,3040.078473,3040.078473,
   ** Warning ** SimHVAC: Maximum iterations (20) exceeded for all HVAC loops, at ANNUAL, 02/11 19:00 - 19:08
   **   ~~~   ** The solution for one or more of the Air Loop HVAC systems did not appear to converge
   **   ~~~   ** Air System Named = CENTRAL SYSTEM did not converge for mass flow rate
   **   ~~~   ** Check values should be zero. Most Recent values listed first.
   **   ~~~   ** Demand-to-Supply interface mass flow rate check value iteration history trace: 7.062779E-002,7.062779E-002,7.062779E-002,7.062779E-002,7.062779E-002,7.062779E-002,7.062779E-002,7.062779E-002,7.062779E-002,7.062779E-002,
   **   ~~~   ** Supply-to-demand interface deck 1 mass flow rate check value iteration history trace: 7.062779E-002,7.062779E-002,7.062779E-002,7.062779E-002,7.062779E-002,7.062779E-002,7.062779E-002,7.062779E-002,7.062779E-002,7.062779E-002,
   **   ~~~   ** Air System Named = CENTRAL SYSTEM did not converge for energy
   **   ~~~   ** Check values should be zero. Most Recent values listed first.
   **   ~~~   ** Demand-to-Supply interface energy check value iteration history trace: 1398.801399,1398.801399,1398.801399,1398.801399,1398.801399,1398.801399,1398.801399,1398.801399,1398.801399,1398.801399,
   **   ~~~   ** Supply-to-demand interface deck 1 energy check value iteration history trace: 2438.007402,2438.007401,2438.007401,2438.007401,2438.007401,2438.007401,2438.007401,2438.007401,2438.007401,2438.007400,
   ** Warning ** SimHVAC: Maximum iterations (20) exceeded for all HVAC loops, at ANNUAL, 02/26 11:06 - 11:09
   **   ~~~   ** The solution for one or more of the Air Loop HVAC systems did not appear to converge
   **   ~~~   ** Air System Named = CENTRAL SYSTEM did not converge for mass flow rate
   **   ~~~   ** Check values should be zero. Most Recent values listed first.
   **   ~~~   ** Demand-to-Supply interface mass flow rate check value iteration history trace: 6.233562E-002,6.233562E-002,6.233562E-002,6.233562E-002,6.233562E-002,6.233562E-002,6.233562E-002,6.233562E-002,6.233562E-002,6.233562E-002,
   **   ~~~   ** Supply-to-demand interface deck 1 mass flow rate check value iteration history trace: 6.233562E-002,6.233562E-002,6.233562E-002,6.233562E-002,6.233562E-002,6.233562E-002,6.233562E-002,6.233562E-002,6.233562E-002,6.233562E-002,
   **   ~~~   ** Air System Named = CENTRAL SYSTEM did not converge for energy
   **   ~~~   ** Check values should be zero. Most Recent values listed first.
   **   ~~~   ** Demand-to-Supply interface energy check value iteration history trace: 1231.056478,1231.056478,1231.056478,1231.056478,1231.056478,1231.056478,1231.056478,1231.056478,1231.056478,1231.056478,
   **   ~~~   ** Supply-to-demand interface deck 1 energy check value iteration history trace: 2257.062834,2257.062834,2257.062833,2257.062833,2257.062833,2257.062833,2257.062833,2257.062833,2257.062833,2257.062833,
   ** Warning ** SimHVAC: Maximum iterations (20) exceeded for all HVAC loops, at ANNUAL, 03/25 18:15 - 18:30
   **   ~~~   ** The solution for one or more of the Air Loop HVAC systems did not appear to converge
   **   ~~~   ** Air System Named = CENTRAL SYSTEM did not converge for mass flow rate
   **   ~~~   ** Check values should be zero. Most Recent values listed first.
   **   ~~~   ** Demand-to-Supply interface mass flow rate check value iteration history trace: 8.021592E-002,8.021592E-002,8.021592E-002,8.021592E-002,8.021592E-002,8.021592E-002,8.021592E-002,8.021592E-002,8.021592E-002,8.021592E-002,
   **   ~~~   ** Supply-to-demand interface deck 1 mass flow rate check value iteration history trace: 8.021592E-002,8.021592E-002,8.021592E-002,8.021592E-002,8.021592E-002,8.021592E-002,8.021592E-002,8.021592E-002,8.021592E-002,8.021592E-002,
   **   ~~~   ** Air System Named = CENTRAL SYSTEM did not converge for energy
   **   ~~~   ** Check values should be zero. Most Recent values listed first.
   **   ~~~   ** Demand-to-Supply interface energy check value iteration history trace: 1587.996958,1587.996958,1587.996958,1587.996958,1587.996958,1587.996958,1587.996958,1587.996958,1587.996958,1587.996958,
   **   ~~~   ** Supply-to-demand interface deck 1 energy check value iteration history trace: 2715.867691,2715.867691,2715.867691,2715.867691,2715.867691,2715.867690,2715.867690,2715.867690,2715.867690,2715.867690,
   ** Warning ** SimHVAC: Maximum iterations (20) exceeded for all HVAC loops, at ANNUAL, 04/17 06:30 - 06:45
   **   ~~~   ** The solution for one or more of the Air Loop HVAC systems did not appear to converge
   **   ~~~   ** Air System Named = CENTRAL SYSTEM did not converge for mass flow rate
   **   ~~~   ** Check values should be zero. Most Recent values listed first.
   **   ~~~   ** Demand-to-Supply interface mass flow rate check value iteration history trace: 7.127649E-002,7.127649E-002,7.127649E-002,7.127649E-002,7.127649E-002,7.127649E-002,7.127649E-002,7.127649E-002,7.127649E-002,7.127649E-002,
   **   ~~~   ** Supply-to-demand interface deck 1 mass flow rate check value iteration history trace: 7.127649E-002,7.127649E-002,7.127649E-002,7.127649E-002,7.127649E-002,7.127649E-002,7.127649E-002,7.127649E-002,7.127649E-002,7.127649E-002,
   **   ~~~   ** Air System Named = CENTRAL SYSTEM did not converge for energy
   **   ~~~   ** Check values should be zero. Most Recent values listed first.
   **   ~~~   ** Demand-to-Supply interface energy check value iteration history trace: 1412.491211,1412.491211,1412.491211,1412.491211,1412.491211,1412.491211,1412.491211,1412.491211,1412.491211,1412.491211,
   **   ~~~   ** Supply-to-demand interface deck 1 energy check value iteration history trace: 2431.069269,2431.069269,2431.069269,2431.069269,2431.069269,2431.069269,2431.069269,2431.069269,2431.069269,2431.069269,
   ** Warning ** SimHVAC: Maximum iterations (20) exceeded for all HVAC loops, at ANNUAL, 04/17 06:30 - 06:38
   **   ~~~   ** The solution for one or more of the Air Loop HVAC systems did not appear to converge
   **   ~~~   ** Air System Named = CENTRAL SYSTEM did not converge for mass flow rate
   **   ~~~   ** Check values should be zero. Most Recent values listed first.
   **   ~~~   ** Demand-to-Supply interface mass flow rate check value iteration history trace: 6.968733E-002,6.968733E-002,6.968733E-002,6.968733E-002,6.968733E-002,6.968733E-002,6.968733E-002,6.968733E-002,6.968733E-002,6.968733E-002,
   **   ~~~   ** Supply-to-demand interface deck 1 mass flow rate check value iteration history trace: 6.968733E-002,6.968733E-002,6.968733E-002,6.968733E-002,6.968733E-002,6.968733E-002,6.968733E-002,6.968733E-002,6.968733E-002,6.968733E-002,
   **   ~~~   ** Air System Named = CENTRAL SYSTEM did not converge for energy
   **   ~~~   ** Check values should be zero. Most Recent values listed first.
   **   ~~~   ** Demand-to-Supply interface energy check value iteration history trace: 1380.948251,1380.948251,1380.948251,1380.948251,1380.948251,1380.948251,1380.948251,1380.948251,1380.948251,1380.948251,
   **   ~~~   ** Supply-to-demand interface deck 1 energy check value iteration history trace: 2376.850003,2376.850003,2376.850003,2376.850003,2376.850003,2376.850003,2376.850003,2376.850003,2376.850003,2376.850003,
   ** Warning ** SimHVAC: Maximum iterations (20) exceeded for all HVAC loops, at ANNUAL, 05/03 06:45 - 07:00
   **   ~~~   ** The solution for one or more of the Air Loop HVAC systems did not appear to converge
   **   ~~~   ** Air System Named = CENTRAL SYSTEM did not converge for mass flow rate
   **   ~~~   ** Check values should be zero. Most Recent values listed first.
   **   ~~~   ** Demand-to-Supply interface mass flow rate check value iteration history trace: 9.314494E-002,9.314494E-002,9.314494E-002,9.314494E-002,9.314494E-002,9.314494E-002,9.314494E-002,9.314494E-002,9.314494E-002,9.314494E-002,
   **   ~~~   ** Supply-to-demand interface deck 1 mass flow rate check value iteration history trace: 9.314494E-002,9.314494E-002,9.314494E-002,9.314494E-002,9.314494E-002,9.314494E-002,9.314494E-002,9.314494E-002,9.314494E-002,9.314494E-002,
   **   ~~~   ** Air System Named = CENTRAL SYSTEM did not converge for energy
   **   ~~~   ** Check values should be zero. Most Recent values listed first.
   **   ~~~   ** Demand-to-Supply interface energy check value iteration history trace: 1846.337333,1846.337332,1846.337332,1846.337332,1846.337332,1846.337332,1846.337332,1846.337332,1846.337332,1846.337332,
   **   ~~~   ** Supply-to-demand interface deck 1 energy check value iteration history trace: 3077.666428,3077.666428,3077.666428,3077.666428,3077.666427,3077.666427,3077.666427,3077.666427,3077.666427,3077.666427,
   ** Warning ** SimHVAC: Maximum iterations (20) exceeded for all HVAC loops, at ANNUAL, 05/12 06:45 - 07:00
   **   ~~~   ** The solution for one or more of the Air Loop HVAC systems did not appear to converge
   **   ~~~   ** Air System Named = CENTRAL SYSTEM did not converge for mass flow rate
   **   ~~~   ** Check values should be zero. Most Recent values listed first.
   **   ~~~   ** Demand-to-Supply interface mass flow rate check value iteration history trace: 7.509566E-002,7.509566E-002,7.509566E-002,7.509566E-002,7.509566E-002,7.509566E-002,7.509566E-002,7.509566E-002,7.509566E-002,7.509566E-002,
   **   ~~~   ** Supply-to-demand interface deck 1 mass flow rate check value iteration history trace: 7.509566E-002,7.509566E-002,7.509566E-002,7.509566E-002,7.509566E-002,7.509566E-002,7.509566E-002,7.509566E-002,7.509566E-002,7.509566E-002,
   **   ~~~   ** Air System Named = CENTRAL SYSTEM did not converge for energy
   **   ~~~   ** Check values should be zero. Most Recent values listed first.
   **   ~~~   ** Demand-to-Supply interface energy check value iteration history trace: 1487.735266,1487.735266,1487.735266,1487.735266,1487.735266,1487.735266,1487.735266,1487.735266,1487.735266,1487.735266,
   **   ~~~   ** Supply-to-demand interface deck 1 energy check value iteration history trace: 2533.991151,2533.991151,2533.991151,2533.991151,2533.991151,2533.991151,2533.991151,2533.991151,2533.991151,2533.991150,
   ** Warning ** SimHVAC: Maximum iterations (20) exceeded for all HVAC loops, at ANNUAL, 05/12 06:45 - 06:52
   **   ~~~   ** The solution for one or more of the Air Loop HVAC systems did not appear to converge
   **   ~~~   ** Air System Named = CENTRAL SYSTEM did not converge for mass flow rate
   **   ~~~   ** Check values should be zero. Most Recent values listed first.
   **   ~~~   ** Demand-to-Supply interface mass flow rate check value iteration history trace: 7.513180E-002,7.513180E-002,7.513180E-002,7.513180E-002,7.513180E-002,7.513180E-002,7.513180E-002,7.513180E-002,7.513180E-002,7.513180E-002,
   **   ~~~   ** Supply-to-demand interface deck 1 mass flow rate check value iteration history trace: 7.513180E-002,7.513180E-002,7.513180E-002,7.513180E-002,7.513180E-002,7.513180E-002,7.513180E-002,7.513180E-002,7.513180E-002,7.513180E-002,
   **   ~~~   ** Air System Named = CENTRAL SYSTEM did not converge for energy
   **   ~~~   ** Check values should be zero. Most Recent values listed first.
   **   ~~~   ** Demand-to-Supply interface energy check value iteration history trace: 1488.481715,1488.481715,1488.481715,1488.481715,1488.481715,1488.481715,1488.481715,1488.481715,1488.481715,1488.481715,
   **   ~~~   ** Supply-to-demand interface deck 1 energy check value iteration history trace: 2535.149923,2535.149923,2535.149922,2535.149922,2535.149922,2535.149922,2535.149922,2535.149922,2535.149922,2535.149922,
   ** Warning ** SimHVAC: Maximum iterations (20) exceeded for all HVAC loops, at ANNUAL, 05/28 10:40 - 10:41
   **   ~~~   ** The solution for one or more of the Air Loop HVAC systems did not appear to converge
   **   ~~~   ** Air System Named = CENTRAL SYSTEM did not converge for mass flow rate
   **   ~~~   ** Check values should be zero. Most Recent values listed first.
   **   ~~~   ** Demand-to-Supply interface mass flow rate check value iteration history trace: 7.906585E-002,7.906585E-002,7.906585E-002,7.906585E-002,7.906585E-002,7.906585E-002,7.906585E-002,7.906585E-002,7.906585E-002,7.906585E-002,
   **   ~~~   ** Supply-to-demand interface deck 1 mass flow rate check value iteration history trace: 7.906585E-002,7.906585E-002,7.906585E-002,7.906585E-002,7.906585E-002,7.906585E-002,7.906585E-002,7.906585E-002,7.906585E-002,7.906585E-002,
   **   ~~~   ** Air System Named = CENTRAL SYSTEM did not converge for energy
   **   ~~~   ** Check values should be zero. Most Recent values listed first.
   **   ~~~   ** Demand-to-Supply interface energy check value iteration history trace: 1561.622014,1561.622013,1561.622013,1561.622013,1561.622013,1561.622013,1561.622013,1561.622013,1561.622013,1561.622013,
   **   ~~~   ** Supply-to-demand interface deck 1 energy check value iteration history trace: 2802.493913,2802.493913,2802.493913,2802.493913,2802.493913,2802.493913,2802.493913,2802.493913,2802.493913,2802.493913,
   ** Warning ** SimHVAC: Maximum iterations (20) exceeded for all HVAC loops, at ANNUAL, 07/12 21:08 - 21:15
   **   ~~~   ** The solution for one or more of the Air Loop HVAC systems did not appear to converge
   **   ~~~   ** Air System Named = CENTRAL SYSTEM did not converge for mass flow rate
   **   ~~~   ** Check values should be zero. Most Recent values listed first.
   **   ~~~   ** Demand-to-Supply interface mass flow rate check value iteration history trace: 0.172940,0.172940,0.172940,0.172940,0.172940,0.172940,0.172940,0.172940,0.172940,0.172940,
   **   ~~~   ** Supply-to-demand interface deck 1 mass flow rate check value iteration history trace: 0.172940,0.172940,0.172940,0.172940,0.172940,0.172940,0.172940,0.172940,0.172940,0.172940,
   **   ~~~   ** Air System Named = CENTRAL SYSTEM did not converge for energy
   **   ~~~   ** Check values should be zero. Most Recent values listed first.
   **   ~~~   ** Demand-to-Supply interface energy check value iteration history trace: 4103.026592,4103.026592,4103.026592,4103.026593,4103.026593,4103.026593,4103.026593,4103.026594,4103.026594,4103.026594,
   **   ~~~   ** Supply-to-demand interface deck 1 energy check value iteration history trace: 1991.223175,1991.223175,1991.223175,1991.223175,1991.223175,1991.223175,1991.223175,1991.223175,1991.223176,1991.223176,
   ** Warning ** SimHVAC: Maximum iterations (20) exceeded for all HVAC loops, at ANNUAL, 07/31 14:00 - 14:15
   **   ~~~   ** The solution for one or more of the Air Loop HVAC systems did not appear to converge
   **   ~~~   ** Air System Named = CENTRAL SYSTEM did not converge for mass flow rate
   **   ~~~   ** Check values should be zero. Most Recent values listed first.
   **   ~~~   ** Demand-to-Supply interface mass flow rate check value iteration history trace: 0.134661,0.134661,0.134661,0.134661,0.134661,0.134661,0.134661,0.134661,0.134661,0.134661,
   **   ~~~   ** Supply-to-demand interface deck 1 mass flow rate check value iteration history trace: 0.134661,0.134661,0.134661,0.134661,0.134661,0.134661,0.134661,0.134661,0.134661,0.134661,
   **   ~~~   ** Air System Named = CENTRAL SYSTEM did not converge for energy
   **   ~~~   ** Check values should be zero. Most Recent values listed first.
   **   ~~~   ** Demand-to-Supply interface energy check value iteration history trace: 3169.456438,3169.456439,3169.456439,3169.456439,3169.456439,3169.456440,3169.456440,3169.456440,3169.456440,3169.456441,
   **   ~~~   ** Supply-to-demand interface deck 1 energy check value iteration history trace: 1713.792896,1713.792896,1713.792896,1713.792896,1713.792896,1713.792897,1713.792897,1713.792897,1713.792897,1713.792897,
   ** Warning ** SimHVAC: Maximum iterations (20) exceeded for all HVAC loops, at ANNUAL, 08/29 20:53 - 21:00
   **   ~~~   ** The solution for one or more of the Air Loop HVAC systems did not appear to converge
   **   ~~~   ** Air System Named = CENTRAL SYSTEM did not converge for mass flow rate
   **   ~~~   ** Check values should be zero. Most Recent values listed first.
   **   ~~~   ** Demand-to-Supply interface mass flow rate check value iteration history trace: 0.117439,0.117439,0.117439,0.117439,0.117439,0.117439,0.117439,0.117439,0.117439,0.117439,
   **   ~~~   ** Supply-to-demand interface deck 1 mass flow rate check value iteration history trace: 0.117439,0.117439,0.117439,0.117439,0.117439,0.117439,0.117439,0.117439,0.117439,0.117439,
   **   ~~~   ** Air System Named = CENTRAL SYSTEM did not converge for energy
   **   ~~~   ** Check values should be zero. Most Recent values listed first.
   **   ~~~   ** Demand-to-Supply interface energy check value iteration history trace: 2763.314921,2763.314921,2763.314922,2763.314922,2763.314922,2763.314922,2763.314922,2763.314922,2763.314922,2763.314922,
   **   ~~~   ** Supply-to-demand interface deck 1 energy check value iteration history trace: 1358.920985,1358.920985,1358.920985,1358.920985,1358.920985,1358.920985,1358.920985,1358.920985,1358.920985,1358.920985,
   ** Warning ** SimHVAC: Maximum iterations (20) exceeded for all HVAC loops, at ANNUAL, 08/30 21:08 - 21:15
   **   ~~~   ** The solution for one or more of the Air Loop HVAC systems did not appear to converge
   **   ~~~   ** Air System Named = CENTRAL SYSTEM did not converge for mass flow rate
   **   ~~~   ** Check values should be zero. Most Recent values listed first.
   **   ~~~   ** Demand-to-Supply interface mass flow rate check value iteration history trace: 0.123226,0.123226,0.123226,0.123226,0.123226,0.123226,0.123226,0.123226,0.123226,0.123226,
   **   ~~~   ** Supply-to-demand interface deck 1 mass flow rate check value iteration history trace: 0.123226,0.123226,0.123226,0.123226,0.123226,0.123226,0.123226,0.123226,0.123226,0.123226,
   **   ~~~   ** Air System Named = CENTRAL SYSTEM did not converge for energy
   **   ~~~   ** Check values should be zero. Most Recent values listed first.
   **   ~~~   ** Demand-to-Supply interface energy check value iteration history trace: 2906.320810,2906.320810,2906.320810,2906.320810,2906.320811,2906.320811,2906.320811,2906.320811,2906.320811,2906.320812,
   **   ~~~   ** Supply-to-demand interface deck 1 energy check value iteration history trace: 1458.828907,1458.828907,1458.828907,1458.828907,1458.828907,1458.828908,1458.828908,1458.828908,1458.828908,1458.828908,
   ************* Simulation Error Summary *************
   ** Warning ** The following Report Variables were requested but not generated -- check.rdd file
   **   ~~~   ** Either the IDF did not contain these elements, the variable name is misspelled,
   **   ~~~   ** or the requested variable is an advanced output which requires Output : Diagnostics, DisplayAdvancedReportVariables;
   ************* Key=*, VarName=BASEBOARD TOTAL HEATING ENERGY, Frequency=
   ************* Key=*, VarName=WATER HEATER NATURALGAS ENERGY, Frequency=
   ************* Key=*, VarName=COOLING COIL TOTAL HEATING ENERGY, Frequency=
   ************* There are 34 unused schedules in input.
   ************* There are 388 unused week schedules in input.
   ************* There are 396 unused day schedules in input.
   ************* Use Output:Diagnostics,DisplayUnusedSchedules; to see them.
   *************
   ************* ===== Recurring Error Summary =====
   ************* The following recurring error messages occurred.
   *************
   *************  ** Warning ** "TOTAL HOT WATER LOAD" - Target water temperature should be less than or equal to the hot water temperature error continues...
   *************  **   ~~~   **   This error occurred 90627 total times;
   *************  **   ~~~   **   during Warmup 0 times;
   *************  **   ~~~   **   during Sizing 0 times.
   *************  **   ~~~   **   Max=8.907365  Min=1.382734E-005
   *************
   *************  ** Warning ** SimHVAC: Exceeding Maximum iterations for all HVAC loops, during ANNUAL continues
   *************  **   ~~~   **   This error occurred 10 total times;
   *************  **   ~~~   **   during Warmup 0 times;
   *************  **   ~~~   **   during Sizing 0 times.
   *************
   *************
   ************* ===== Final Error Summary =====
   ************* The following error categories occurred.  Consider correcting or noting.
   ************* Nominally Unused Constructions
   ************* ..The nominally unused constructions warning is provided to alert you to potential conditions that can cause
   ************* ..extra time during simulation. Each construction is calculated by the algorithm indicated in the HeatBalanceAlgorithm
   ************* ..object. You may remove the constructions indicated (when you use the DisplayExtraWarnings option).
   *************
   ************* EnergyPlus Warmup Error Summary. During Warmup: 1 Warning; 0 Severe Errors.
   ************* EnergyPlus Sizing Error Summary. During Sizing: 4 Warning; 3 Severe Errors.
   ************* EnergyPlus Completed Successfully-- 90669 Warning; 3 Severe Errors; Elapsed Time=00hr 00min 54.86sec
