Program Version,EnergyPlus, Version 22.2.0-c249759bad, YMD=2023.09.01 17:11,
   ************* Beginning Zone Sizing Calculations
   ** Warning ** ProcessScheduleInput: Schedule:Constant="ALWAYS ON DISCRETE", Schedule Type Limits Name="ONOFF" not found -- will not be validated
   ** Warning ** Foundation:Kiva="KIVA FOUNDATION", no Interior Horizontal Insulation Material Name defined
   **   ~~~   ** Interior Horizontal Insulation Depth will not be used.
   ** Warning ** CheckUsedConstructions: There are 15 nominally unused constructions in input.
   **   ~~~   ** Each Unused construction is shown.
   ************* Construction=INTERIOR FLOOR
   ************* Construction=INTERIOR WINDOW
   ************* Construction=EXTERIOR DOOR
   ************* Construction=INTERIOR DOOR
   ************* Construction=GABLE CONSTRUCTION
   ************* Construction=CRAWL_FLOOR
   ************* Construction=INSULATED PIPE
   ************* Construction=PLAIN PIPE
   ************* Construction=TDD PIPE
   ************* Construction=TDD DOME
   ************* Construction=TDD DIFFUSER
   ************* Construction=CRAWL WALL
   ************* Construction=CEILING-FLOOR-LAYER
   ************* Construction=SLAB CONSTRUCTION W FULL R10 INSULATION
   ************* Construction=SLAB CONSTRUCTION W FULL R5 INSULATION
   ** Warning ** GetDXCoils: Coil:Heating:DX:SingleSpeed="DX_HEATING_COIL" curve values
   **   ~~~   ** ... Defrost Energy Input Ratio Function of Temperature Curve Name = DEFROSTEIR output is not equal to 1.0 (+ or - 10%) at rated conditions.
   **   ~~~   ** ... Curve output at rated conditions = 0.152
   ************* Beginning System Sizing Calculations
   ************* Beginning Plant Sizing Calculations
   ** Warning ** Coil:WaterHeating:AirToWaterHeatPump:Wrapped "HEAT PUMP WATER HEATER EVAPORATOR": Rated air volume flow rate per watt of rated total water heating capacity is out of range
   **   ~~~   ** Min Rated Vol Flow Per Watt=[4.027E-005], Rated Vol Flow Per Watt=[1.510E-004], Max Rated Vol Flow Per Watt=[8.056E-005]. See Input-Output Reference Manual for valid range.
   ************* SizeFan: : Potential issue with equipment sizing for Fan:OnOff HEAT PUMP WATER HEATER FAN
   **   ~~~   ** User-Specified Maximum Flow Rate [m3/s] = 0.22653
   **   ~~~   ** differs from Design Size Maximum Flow Rate [m3/s] = 7.55250E-002
   **   ~~~   ** This may, or may not, indicate mismatched component sizes.
   **   ~~~   ** Verify that the value entered is intended and is consistent with other components.
   ** Warning ** Water heater = WATER HEATER TANK:  Recovery Efficiency and Energy Factor could not be calculated during the test for standard ratings
   **   ~~~   ** Setpoint was never recovered and/or heater never turned on
   ** Warning ** Check input. Pump nominal power or motor efficiency is set to 0, for pump=MAINS PRESSURE
   ** Warning ** Output:Meter: invalid Key Name="ELECTRIC_RANGE:INTERIOREQUIPMENT:ELECTRICITY" - not found.
   ** Warning ** Output:Meter: invalid Key Name="ELECTRIC_DRYER:INTERIOREQUIPMENT:ELECTRICITY" - not found.
   ** Warning ** Output:Meter: invalid Key Name="HEATRECOVERY:ELECTRICITY" - not found.
   ** Warning ** Output:Meter: invalid Key Name="HEATING:NATURALGAS" - not found.
   ** Warning ** Output:Meter: invalid Key Name="WATERSYSTEMS:NATURALGAS" - not found.
   ** Warning ** Output:Meter: invalid Key Name="PROPANE:FACILITY" - not found.
   ** Warning ** Output:Meter: invalid Key Name="HEATING:PROPANE" - not found.
   ************* Testing Individual Branch Integrity
   ************* All Branches passed integrity testing
   ************* Testing Individual Supply Air Path Integrity
   ************* All Supply Air Paths passed integrity testing
   ************* Testing Individual Return Air Path Integrity
   ************* All Return Air Paths passed integrity testing
   ************* No node connection errors were found.
   ************* Beginning Simulation
   ** Warning ** AirflowNetwork::Solver::validate_distribution: Heat pump water heater is simulated along with an AirflowNetwork but is not included in the AirflowNetwork.
   ** Warning ** CalcEquipmentFlowRates: "TOTAL HOT WATER LOAD" - Target water temperature is greater than the hot water temperature by (0.65 C)
   **   ~~~   **  Environment=EXTREME_WINTER, at Simulation time=01/06 06:00 - 06:15
   **   ~~~   ** ...target water temperature     = 53.33 C
   **   ~~~   ** ...hot water temperature        = 52.68 C
   **   ~~~   ** ...Target water temperature should be less than or equal to the hot water temperature. Verify temperature setpoints and schedules.
   ** Warning ** SimHVAC: Maximum iterations (20) exceeded for all HVAC loops, at EXTREME_WINTER, 01/11 10:45 - 10:49
   **   ~~~   ** The solution for one or more of the Air Loop HVAC systems did not appear to converge
   **   ~~~   ** Air System Named = CENTRAL SYSTEM did not converge for mass flow rate
   **   ~~~   ** Check values should be zero. Most Recent values listed first.
   **   ~~~   ** Demand-to-Supply interface mass flow rate check value iteration history trace: 6.123050E-002,6.123050E-002,6.123050E-002,6.123050E-002,6.123050E-002,6.123050E-002,6.123050E-002,6.123050E-002,6.123050E-002,6.123050E-002,
   **   ~~~   ** Supply-to-demand interface deck 1 mass flow rate check value iteration history trace: 6.123050E-002,6.123050E-002,6.123050E-002,6.123050E-002,6.123050E-002,6.123050E-002,6.123050E-002,6.123050E-002,6.123050E-002,6.123050E-002,
   **   ~~~   ** Air System Named = CENTRAL SYSTEM did not converge for energy
   **   ~~~   ** Check values should be zero. Most Recent values listed first.
   **   ~~~   ** Demand-to-Supply interface energy check value iteration history trace: 1213.369722,1213.369722,1213.369722,1213.369722,1213.369722,1213.369722,1213.369722,1213.369722,1213.369722,1213.369722,
   **   ~~~   ** Supply-to-demand interface deck 1 energy check value iteration history trace: 2190.060542,2190.060542,2190.060542,2190.060542,2190.060542,2190.060542,2190.060542,2190.060542,2190.060542,2190.060541,
   ** Warning ** SimHVAC: Maximum iterations (20) exceeded for all HVAC loops, at EXTREME_SUMMER, 06/18 05:08 - 05:15
   **   ~~~   ** The solution for one or more of the Air Loop HVAC systems did not appear to converge
   **   ~~~   ** Air System Named = CENTRAL SYSTEM did not converge for mass flow rate
   **   ~~~   ** Check values should be zero. Most Recent values listed first.
   **   ~~~   ** Demand-to-Supply interface mass flow rate check value iteration history trace: 0.452335,0.452335,0.452335,0.452335,0.452335,0.452335,0.452335,0.452335,0.452335,0.452335,
   **   ~~~   ** Supply-to-demand interface deck 1 mass flow rate check value iteration history trace: 0.452335,0.452335,0.452335,0.452335,0.452335,0.452335,0.452335,0.452335,0.452335,0.452335,
   **   ~~~   ** Air System Named = CENTRAL SYSTEM did not converge for energy
   **   ~~~   ** Check values should be zero. Most Recent values listed first.
   **   ~~~   ** Demand-to-Supply interface energy check value iteration history trace: 11248.112583,11248.112588,11248.112593,11248.112598,11248.112603,11248.112609,11248.112614,11248.112619,11248.112624,11248.112629,
   **   ~~~   ** Supply-to-demand interface deck 1 energy check value iteration history trace: 6155.902796,6155.902799,6155.902802,6155.902805,6155.902808,6155.902811,6155.902813,6155.902816,6155.902819,6155.902822,
   ** Warning ** SimHVAC: Maximum iterations (20) exceeded for all HVAC loops, at ANNUAL, 01/07 08:45 - 08:52
   **   ~~~   ** The solution for one or more of the Air Loop HVAC systems did not appear to converge
   **   ~~~   ** Air System Named = CENTRAL SYSTEM did not converge for mass flow rate
   **   ~~~   ** Check values should be zero. Most Recent values listed first.
   **   ~~~   ** Demand-to-Supply interface mass flow rate check value iteration history trace: 7.458991E-002,7.458991E-002,7.458991E-002,7.458991E-002,7.458991E-002,7.458991E-002,7.458991E-002,7.458991E-002,7.458991E-002,7.458991E-002,
   **   ~~~   ** Supply-to-demand interface deck 1 mass flow rate check value iteration history trace: 7.458991E-002,7.458991E-002,7.458991E-002,7.458991E-002,7.458991E-002,7.458991E-002,7.458991E-002,7.458991E-002,7.458991E-002,7.458991E-002,
   **   ~~~   ** Air System Named = CENTRAL SYSTEM did not converge for energy
   **   ~~~   ** Check values should be zero. Most Recent values listed first.
   **   ~~~   ** Demand-to-Supply interface energy check value iteration history trace: 1478.052609,1478.052609,1478.052609,1478.052609,1478.052609,1478.052609,1478.052609,1478.052609,1478.052608,1478.052608,
   **   ~~~   ** Supply-to-demand interface deck 1 energy check value iteration history trace: 2532.268633,2532.268632,2532.268632,2532.268632,2532.268632,2532.268632,2532.268632,2532.268632,2532.268631,2532.268631,
   ** Warning ** SimHVAC: Maximum iterations (20) exceeded for all HVAC loops, at ANNUAL, 01/10 09:15 - 09:19
   **   ~~~   ** The solution for one or more of the Air Loop HVAC systems did not appear to converge
   **   ~~~   ** Air System Named = CENTRAL SYSTEM did not converge for mass flow rate
   **   ~~~   ** Check values should be zero. Most Recent values listed first.
   **   ~~~   ** Demand-to-Supply interface mass flow rate check value iteration history trace: 7.195067E-002,7.195067E-002,7.195067E-002,7.195067E-002,7.195067E-002,7.195067E-002,7.195067E-002,7.195067E-002,7.195067E-002,7.195067E-002,
   **   ~~~   ** Supply-to-demand interface deck 1 mass flow rate check value iteration history trace: 7.195067E-002,7.195067E-002,7.195067E-002,7.195067E-002,7.195067E-002,7.195067E-002,7.195067E-002,7.195067E-002,7.195067E-002,7.195067E-002,
   **   ~~~   ** Air System Named = CENTRAL SYSTEM did not converge for energy
   **   ~~~   ** Check values should be zero. Most Recent values listed first.
   **   ~~~   ** Demand-to-Supply interface energy check value iteration history trace: 1425.774828,1425.774828,1425.774828,1425.774828,1425.774828,1425.774828,1425.774828,1425.774828,1425.774827,1425.774827,
   **   ~~~   ** Supply-to-demand interface deck 1 energy check value iteration history trace: 2297.945516,2297.945515,2297.945515,2297.945515,2297.945515,2297.945515,2297.945515,2297.945515,2297.945514,2297.945514,
   ** Warning ** SimHVAC: Maximum iterations (20) exceeded for all HVAC loops, at ANNUAL, 01/30 06:53 - 07:00
   **   ~~~   ** The solution for one or more of the Air Loop HVAC systems did not appear to converge
   **   ~~~   ** Air System Named = CENTRAL SYSTEM did not converge for mass flow rate
   **   ~~~   ** Check values should be zero. Most Recent values listed first.
   **   ~~~   ** Demand-to-Supply interface mass flow rate check value iteration history trace: 5.939393E-002,5.939393E-002,5.939393E-002,5.939393E-002,5.939393E-002,5.939393E-002,5.939393E-002,5.939393E-002,5.939393E-002,5.939393E-002,
   **   ~~~   ** Supply-to-demand interface deck 1 mass flow rate check value iteration history trace: 5.939393E-002,5.939393E-002,5.939393E-002,5.939393E-002,5.939393E-002,5.939393E-002,5.939393E-002,5.939393E-002,5.939393E-002,5.939393E-002,
   **   ~~~   ** Air System Named = CENTRAL SYSTEM did not converge for energy
   **   ~~~   ** Check values should be zero. Most Recent values listed first.
   **   ~~~   ** Demand-to-Supply interface energy check value iteration history trace: 1176.826423,1176.826423,1176.826422,1176.826422,1176.826422,1176.826422,1176.826422,1176.826422,1176.826422,1176.826422,
   **   ~~~   ** Supply-to-demand interface deck 1 energy check value iteration history trace: 2134.704242,2134.704242,2134.704242,2134.704242,2134.704242,2134.704241,2134.704241,2134.704241,2134.704241,2134.704241,
   ** Warning ** SimHVAC: Maximum iterations (20) exceeded for all HVAC loops, at ANNUAL, 02/08 06:45 - 07:00
   **   ~~~   ** The solution for one or more of the Air Loop HVAC systems did not appear to converge
   **   ~~~   ** Air System Named = CENTRAL SYSTEM did not converge for mass flow rate
   **   ~~~   ** Check values should be zero. Most Recent values listed first.
   **   ~~~   ** Demand-to-Supply interface mass flow rate check value iteration history trace: 6.434173E-002,6.434173E-002,6.434173E-002,6.434173E-002,6.434173E-002,6.434173E-002,6.434173E-002,6.434173E-002,6.434173E-002,6.434173E-002,
   **   ~~~   ** Supply-to-demand interface deck 1 mass flow rate check value iteration history trace: 6.434173E-002,6.434173E-002,6.434173E-002,6.434173E-002,6.434173E-002,6.434173E-002,6.434173E-002,6.434173E-002,6.434173E-002,6.434173E-002,
   **   ~~~   ** Air System Named = CENTRAL SYSTEM did not converge for energy
   **   ~~~   ** Check values should be zero. Most Recent values listed first.
   **   ~~~   ** Demand-to-Supply interface energy check value iteration history trace: 1278.544016,1278.544016,1278.544016,1278.544016,1278.544016,1278.544016,1278.544016,1278.544016,1278.544016,1278.544016,
   **   ~~~   ** Supply-to-demand interface deck 1 energy check value iteration history trace: 2249.683478,2249.683478,2249.683478,2249.683478,2249.683478,2249.683478,2249.683478,2249.683477,2249.683477,2249.683477,
   ** Warning ** SimHVAC: Maximum iterations (20) exceeded for all HVAC loops, at ANNUAL, 02/08 12:11 - 12:15
   **   ~~~   ** The solution for one or more of the Air Loop HVAC systems did not appear to converge
   **   ~~~   ** Air System Named = CENTRAL SYSTEM did not converge for mass flow rate
   **   ~~~   ** Check values should be zero. Most Recent values listed first.
   **   ~~~   ** Demand-to-Supply interface mass flow rate check value iteration history trace: 5.682165E-002,5.682165E-002,5.682165E-002,5.682165E-002,5.682165E-002,5.682165E-002,5.682165E-002,5.682165E-002,5.682165E-002,5.682165E-002,
   **   ~~~   ** Supply-to-demand interface deck 1 mass flow rate check value iteration history trace: 5.682165E-002,5.682165E-002,5.682165E-002,5.682165E-002,5.682165E-002,5.682165E-002,5.682165E-002,5.682165E-002,5.682165E-002,5.682165E-002,
   **   ~~~   ** Air System Named = CENTRAL SYSTEM did not converge for energy
   **   ~~~   ** Check values should be zero. Most Recent values listed first.
   **   ~~~   ** Demand-to-Supply interface energy check value iteration history trace: 1126.236571,1126.236571,1126.236571,1126.236571,1126.236571,1126.236570,1126.236570,1126.236570,1126.236570,1126.236570,
   **   ~~~   ** Supply-to-demand interface deck 1 energy check value iteration history trace: 1993.100875,1993.100875,1993.100875,1993.100874,1993.100874,1993.100874,1993.100874,1993.100874,1993.100874,1993.100874,
   ** Warning ** SimHVAC: Maximum iterations (20) exceeded for all HVAC loops, at ANNUAL, 02/09 04:20 - 04:25
   **   ~~~   ** The solution for one or more of the Air Loop HVAC systems did not appear to converge
   **   ~~~   ** Air System Named = CENTRAL SYSTEM did not converge for mass flow rate
   **   ~~~   ** Check values should be zero. Most Recent values listed first.
   **   ~~~   ** Demand-to-Supply interface mass flow rate check value iteration history trace: 7.887952E-002,7.887952E-002,7.887952E-002,7.887952E-002,7.887952E-002,7.887952E-002,7.887952E-002,7.887952E-002,7.887952E-002,7.887952E-002,
   **   ~~~   ** Supply-to-demand interface deck 1 mass flow rate check value iteration history trace: 7.887952E-002,7.887952E-002,7.887952E-002,7.887952E-002,7.887952E-002,7.887952E-002,7.887952E-002,7.887952E-002,7.887952E-002,7.887952E-002,
   **   ~~~   ** Air System Named = CENTRAL SYSTEM did not converge for energy
   **   ~~~   ** Check values should be zero. Most Recent values listed first.
   **   ~~~   ** Demand-to-Supply interface energy check value iteration history trace: 1487.378863,1487.378863,1487.378863,1487.378863,1487.378863,1487.378863,1487.378863,1487.378863,1487.378863,1487.378862,
   **   ~~~   ** Supply-to-demand interface deck 1 energy check value iteration history trace: 2295.091679,2295.091679,2295.091679,2295.091679,2295.091678,2295.091678,2295.091678,2295.091678,2295.091678,2295.091678,
   ** Warning ** SimHVAC: Maximum iterations (20) exceeded for all HVAC loops, at ANNUAL, 03/22 07:34 - 07:38
   **   ~~~   ** The solution for one or more of the Air Loop HVAC systems did not appear to converge
   **   ~~~   ** Air System Named = CENTRAL SYSTEM did not converge for mass flow rate
   **   ~~~   ** Check values should be zero. Most Recent values listed first.
   **   ~~~   ** Demand-to-Supply interface mass flow rate check value iteration history trace: 9.409476E-002,9.409476E-002,9.409476E-002,9.409476E-002,9.409476E-002,9.409476E-002,9.409476E-002,9.409476E-002,9.409476E-002,9.409476E-002,
   **   ~~~   ** Supply-to-demand interface deck 1 mass flow rate check value iteration history trace: 9.409476E-002,9.409476E-002,9.409476E-002,9.409476E-002,9.409476E-002,9.409476E-002,9.409476E-002,9.409476E-002,9.409476E-002,9.409476E-002,
   **   ~~~   ** Air System Named = CENTRAL SYSTEM did not converge for energy
   **   ~~~   ** Check values should be zero. Most Recent values listed first.
   **   ~~~   ** Demand-to-Supply interface energy check value iteration history trace: 1864.562687,1864.562687,1864.562687,1864.562686,1864.562686,1864.562686,1864.562686,1864.562686,1864.562686,1864.562686,
   **   ~~~   ** Supply-to-demand interface deck 1 energy check value iteration history trace: 2818.531311,2818.531311,2818.531311,2818.531311,2818.531311,2818.531310,2818.531310,2818.531310,2818.531310,2818.531310,
   ** Warning ** SimHVAC: Maximum iterations (20) exceeded for all HVAC loops, at ANNUAL, 04/13 12:25 - 12:30
   **   ~~~   ** The solution for one or more of the Air Loop HVAC systems did not appear to converge
   **   ~~~   ** Air System Named = CENTRAL SYSTEM did not converge for mass flow rate
   **   ~~~   ** Check values should be zero. Most Recent values listed first.
   **   ~~~   ** Demand-to-Supply interface mass flow rate check value iteration history trace: 0.300491,0.300491,0.300491,0.300491,0.300491,0.300491,0.300491,0.300491,0.300491,0.300491,
   **   ~~~   ** Supply-to-demand interface deck 1 mass flow rate check value iteration history trace: 0.300491,0.300491,0.300491,0.300491,0.300491,0.300491,0.300491,0.300491,0.300491,0.300491,
   **   ~~~   ** Air System Named = CENTRAL SYSTEM did not converge for energy
   **   ~~~   ** Check values should be zero. Most Recent values listed first.
   **   ~~~   ** Demand-to-Supply interface energy check value iteration history trace: 7203.945749,7203.945750,7203.945750,7203.945751,7203.945752,7203.945752,7203.945753,7203.945753,7203.945754,7203.945754,
   **   ~~~   ** Supply-to-demand interface deck 1 energy check value iteration history trace: 3871.632448,3871.632448,3871.632448,3871.632449,3871.632449,3871.632449,3871.632449,3871.632450,3871.632450,3871.632450,
   ** Warning ** SimHVAC: Maximum iterations (20) exceeded for all HVAC loops, at ANNUAL, 04/13 16:38 - 16:45
   **   ~~~   ** The solution for one or more of the Air Loop HVAC systems did not appear to converge
   **   ~~~   ** Air System Named = CENTRAL SYSTEM did not converge for mass flow rate
   **   ~~~   ** Check values should be zero. Most Recent values listed first.
   **   ~~~   ** Demand-to-Supply interface mass flow rate check value iteration history trace: 0.233806,0.233806,0.233806,0.233806,0.233806,0.233806,0.233806,0.233806,0.233806,0.233806,
   **   ~~~   ** Supply-to-demand interface deck 1 mass flow rate check value iteration history trace: 0.233806,0.233806,0.233806,0.233806,0.233806,0.233806,0.233806,0.233806,0.233806,0.233806,
   **   ~~~   ** Air System Named = CENTRAL SYSTEM did not converge for energy
   **   ~~~   ** Check values should be zero. Most Recent values listed first.
   **   ~~~   ** Demand-to-Supply interface energy check value iteration history trace: 5594.863311,5594.863311,5594.863312,5594.863312,5594.863313,5594.863313,5594.863313,5594.863314,5594.863314,5594.863315,
   **   ~~~   ** Supply-to-demand interface deck 1 energy check value iteration history trace: 3123.300308,3123.300309,3123.300309,3123.300309,3123.300309,3123.300310,3123.300310,3123.300310,3123.300310,3123.300310,
   ** Warning ** SimHVAC: Maximum iterations (20) exceeded for all HVAC loops, at ANNUAL, 04/16 10:04 - 10:06
   **   ~~~   ** The solution for one or more of the Air Loop HVAC systems did not appear to converge
   **   ~~~   ** Air System Named = CENTRAL SYSTEM did not converge for mass flow rate
   **   ~~~   ** Check values should be zero. Most Recent values listed first.
   **   ~~~   ** Demand-to-Supply interface mass flow rate check value iteration history trace: 0.199701,0.199701,0.199701,0.199701,0.199701,0.199701,0.199701,0.199701,0.199701,0.199701,
   **   ~~~   ** Supply-to-demand interface deck 1 mass flow rate check value iteration history trace: 0.199701,0.199701,0.199701,0.199701,0.199701,0.199701,0.199701,0.199701,0.199701,0.199701,
   **   ~~~   ** Air System Named = CENTRAL SYSTEM did not converge for energy
   **   ~~~   ** Check values should be zero. Most Recent values listed first.
   **   ~~~   ** Demand-to-Supply interface energy check value iteration history trace: 4732.435194,4732.435194,4732.435194,4732.435194,4732.435195,4732.435195,4732.435195,4732.435196,4732.435196,4732.435196,
   **   ~~~   ** Supply-to-demand interface deck 1 energy check value iteration history trace: 2203.410896,2203.410897,2203.410897,2203.410897,2203.410897,2203.410897,2203.410897,2203.410897,2203.410898,2203.410898,
   ** Warning ** SimHVAC: Maximum iterations (20) exceeded for all HVAC loops, at ANNUAL, 04/16 10:23 - 10:25
   **   ~~~   ** The solution for one or more of the Air Loop HVAC systems did not appear to converge
   **   ~~~   ** Air System Named = CENTRAL SYSTEM did not converge for mass flow rate
   **   ~~~   ** Check values should be zero. Most Recent values listed first.
   **   ~~~   ** Demand-to-Supply interface mass flow rate check value iteration history trace: 0.228799,0.228799,0.228799,0.228799,0.228799,0.228799,0.228799,0.228799,0.228799,0.228799,
   **   ~~~   ** Supply-to-demand interface deck 1 mass flow rate check value iteration history trace: 0.228799,0.228799,0.228799,0.228799,0.228799,0.228799,0.228799,0.228799,0.228799,0.228799,
   **   ~~~   ** Air System Named = CENTRAL SYSTEM did not converge for energy
   **   ~~~   ** Check values should be zero. Most Recent values listed first.
   **   ~~~   ** Demand-to-Supply interface energy check value iteration history trace: 5434.324645,5434.324646,5434.324646,5434.324646,5434.324647,5434.324647,5434.324647,5434.324648,5434.324648,5434.324648,
   **   ~~~   ** Supply-to-demand interface deck 1 energy check value iteration history trace: 2518.923851,2518.923851,2518.923851,2518.923851,2518.923851,2518.923852,2518.923852,2518.923852,2518.923852,2518.923852,
   ** Warning ** SimHVAC: Maximum iterations (20) exceeded for all HVAC loops, at ANNUAL, 11/14 04:15 - 04:30
   **   ~~~   ** The solution for one or more of the Air Loop HVAC systems did not appear to converge
   **   ~~~   ** Air System Named = CENTRAL SYSTEM did not converge for mass flow rate
   **   ~~~   ** Check values should be zero. Most Recent values listed first.
   **   ~~~   ** Demand-to-Supply interface mass flow rate check value iteration history trace: 7.964348E-002,7.964348E-002,7.964348E-002,7.964348E-002,7.964348E-002,7.964348E-002,7.964348E-002,7.964348E-002,7.964348E-002,7.964348E-002,
   **   ~~~   ** Supply-to-demand interface deck 1 mass flow rate check value iteration history trace: 7.964348E-002,7.964348E-002,7.964348E-002,7.964348E-002,7.964348E-002,7.964348E-002,7.964348E-002,7.964348E-002,7.964348E-002,7.964348E-002,
   **   ~~~   ** Air System Named = CENTRAL SYSTEM did not converge for energy
   **   ~~~   ** Check values should be zero. Most Recent values listed first.
   **   ~~~   ** Demand-to-Supply interface energy check value iteration history trace: 1481.437581,1481.437581,1481.437581,1481.437581,1481.437580,1481.437580,1481.437580,1481.437580,1481.437580,1481.437580,
   **   ~~~   ** Supply-to-demand interface deck 1 energy check value iteration history trace: 2300.746705,2300.746704,2300.746704,2300.746704,2300.746704,2300.746704,2300.746704,2300.746704,2300.746704,2300.746704,
   ************* Simulation Error Summary *************
   ** Warning ** The following Report Variables were requested but not generated -- check.rdd file
   **   ~~~   ** Either the IDF did not contain these elements, the variable name is misspelled,
   **   ~~~   ** or the requested variable is an advanced output which requires Output : Diagnostics, DisplayAdvancedReportVariables;
   ************* Key=*, VarName=BASEBOARD TOTAL HEATING ENERGY, Frequency=
   ************* Key=*, VarName=WATER HEATER NATURALGAS ENERGY, Frequency=
   ************* Key=*, VarName=COOLING COIL TOTAL HEATING ENERGY, Frequency=
   ************* There are 34 unused schedules in input.
   ************* There are 388 unused week schedules in input.
   ************* There are 396 unused day schedules in input.
   ************* Use Output:Diagnostics,DisplayUnusedSchedules; to see them.
   *************
   ************* ===== Recurring Error Summary =====
   ************* The following recurring error messages occurred.
   *************
   *************  ** Warning ** "TOTAL HOT WATER LOAD" - Target water temperature should be less than or equal to the hot water temperature error continues...
   *************  **   ~~~   **   This error occurred 143497 total times;
   *************  **   ~~~   **   during Warmup 0 times;
   *************  **   ~~~   **   during Sizing 0 times.
   *************  **   ~~~   **   Max=8.809632  Min=1.426489E-004
   *************
   *************  ** Warning ** SimHVAC: Exceeding Maximum iterations for all HVAC loops, during ANNUAL continues
   *************  **   ~~~   **   This error occurred 4 total times;
   *************  **   ~~~   **   during Warmup 0 times;
   *************  **   ~~~   **   during Sizing 0 times.
   *************
   *************
   ************* ===== Final Error Summary =====
   ************* The following error categories occurred.  Consider correcting or noting.
   ************* Nominally Unused Constructions
   ************* ..The nominally unused constructions warning is provided to alert you to potential conditions that can cause
   ************* ..extra time during simulation. Each construction is calculated by the algorithm indicated in the HeatBalanceAlgorithm
   ************* ..object. You may remove the constructions indicated (when you use the DisplayExtraWarnings option).
   *************
   ************* EnergyPlus Warmup Error Summary. During Warmup: 1 Warning; 0 Severe Errors.
   ************* EnergyPlus Sizing Error Summary. During Sizing: 4 Warning; 0 Severe Errors.
   ************* EnergyPlus Completed Successfully-- 143532 Warning; 0 Severe Errors; Elapsed Time=00hr 06min 32.54sec
