Program Version,EnergyPlus, Version 22.2.0-c249759bad, YMD=2023.09.01 15:02,
   ************* Beginning Zone Sizing Calculations
   ** Warning ** ProcessScheduleInput: Schedule:Constant="ALWAYS ON DISCRETE", Schedule Type Limits Name="ONOFF" not found -- will not be validated
   ** Warning ** Foundation:Kiva="KIVA FOUNDATION", no Interior Horizontal Insulation Material Name defined
   **   ~~~   ** Interior Horizontal Insulation Depth will not be used.
   ** Warning ** CheckUsedConstructions: There are 15 nominally unused constructions in input.
   **   ~~~   ** Each Unused construction is shown.
   ************* Construction=INTERIOR FLOOR
   ************* Construction=INTERIOR WINDOW
   ************* Construction=EXTERIOR DOOR
   ************* Construction=INTERIOR DOOR
   ************* Construction=GABLE CONSTRUCTION
   ************* Construction=CRAWL_FLOOR
   ************* Construction=INSULATED PIPE
   ************* Construction=PLAIN PIPE
   ************* Construction=TDD PIPE
   ************* Construction=TDD DOME
   ************* Construction=TDD DIFFUSER
   ************* Construction=CRAWL WALL
   ************* Construction=CEILING-FLOOR-LAYER
   ************* Construction=SLAB CONSTRUCTION W FULL R10 INSULATION
   ************* Construction=SLAB CONSTRUCTION W FULL R5 INSULATION
   ** Warning ** GetDXCoils: Coil:Heating:DX:SingleSpeed="DX_HEATING_COIL" curve values
   **   ~~~   ** ... Defrost Energy Input Ratio Function of Temperature Curve Name = DEFROSTEIR output is not equal to 1.0 (+ or - 10%) at rated conditions.
   **   ~~~   ** ... Curve output at rated conditions = 0.152
   ************* Beginning System Sizing Calculations
   ************* Beginning Plant Sizing Calculations
   ** Warning ** Coil:WaterHeating:AirToWaterHeatPump:Wrapped "HEAT PUMP WATER HEATER EVAPORATOR": Rated air volume flow rate per watt of rated total water heating capacity is out of range
   **   ~~~   ** Min Rated Vol Flow Per Watt=[4.027E-005], Rated Vol Flow Per Watt=[1.386E-004], Max Rated Vol Flow Per Watt=[8.056E-005]. See Input-Output Reference Manual for valid range.
   ** Warning ** Water heater = WATER HEATER TANK:  Recovery Efficiency and Energy Factor could not be calculated during the test for standard ratings
   **   ~~~   ** Setpoint was never recovered and/or heater never turned on
   ** Warning ** Check input. Pump nominal power or motor efficiency is set to 0, for pump=MAINS PRESSURE
   ** Warning ** AirflowNetwork::Solver::validate_distribution: Heat pump water heater is simulated along with an AirflowNetwork but is not included in the AirflowNetwork.
   ** Warning ** Output:Meter: invalid Key Name="ELECTRIC_RANGE:INTERIOREQUIPMENT:ELECTRICITY" - not found.
   ** Warning ** Output:Meter: invalid Key Name="ELECTRIC_DRYER:INTERIOREQUIPMENT:ELECTRICITY" - not found.
   ** Warning ** Output:Meter: invalid Key Name="HEATRECOVERY:ELECTRICITY" - not found.
   ** Warning ** Output:Meter: invalid Key Name="HEATING:NATURALGAS" - not found.
   ** Warning ** Output:Meter: invalid Key Name="WATERSYSTEMS:NATURALGAS" - not found.
   ** Warning ** Output:Meter: invalid Key Name="PROPANE:FACILITY" - not found.
   ** Warning ** Output:Meter: invalid Key Name="HEATING:PROPANE" - not found.
   ************* Testing Individual Branch Integrity
   ************* All Branches passed integrity testing
   ************* Testing Individual Supply Air Path Integrity
   ************* All Supply Air Paths passed integrity testing
   ************* Testing Individual Return Air Path Integrity
   ************* All Return Air Paths passed integrity testing
   ************* No node connection errors were found.
   ************* Beginning Simulation
   ** Warning ** CalcEquipmentFlowRates: "TOTAL HOT WATER LOAD" - Target water temperature is greater than the hot water temperature by (1.69 C)
   **   ~~~   **  Environment=EXTREME_WINTER, at Simulation time=01/20 06:00 - 06:15
   **   ~~~   ** ...target water temperature     = 53.33 C
   **   ~~~   ** ...hot water temperature        = 51.64 C
   **   ~~~   ** ...Target water temperature should be less than or equal to the hot water temperature. Verify temperature setpoints and schedules.
   ** Warning ** SimHVAC: Maximum iterations (20) exceeded for all HVAC loops, at ANNUAL, 03/10 21:35 - 21:40
   **   ~~~   ** The solution for one or more of the Air Loop HVAC systems did not appear to converge
   **   ~~~   ** Air System Named = CENTRAL SYSTEM did not converge for mass flow rate
   **   ~~~   ** Check values should be zero. Most Recent values listed first.
   **   ~~~   ** Demand-to-Supply interface mass flow rate check value iteration history trace: 9.982782E-002,9.982782E-002,9.982782E-002,9.982782E-002,9.982782E-002,9.982782E-002,9.982782E-002,9.982782E-002,9.982782E-002,9.982782E-002,
   **   ~~~   ** Supply-to-demand interface deck 1 mass flow rate check value iteration history trace: 9.982782E-002,9.982782E-002,9.982782E-002,9.982782E-002,9.982782E-002,9.982782E-002,9.982782E-002,9.982782E-002,9.982782E-002,9.982782E-002,
   **   ~~~   ** Air System Named = CENTRAL SYSTEM did not converge for energy
   **   ~~~   ** Check values should be zero. Most Recent values listed first.
   **   ~~~   ** Demand-to-Supply interface energy check value iteration history trace: 1980.444529,1980.444529,1980.444528,1980.444528,1980.444528,1980.444528,1980.444528,1980.444528,1980.444528,1980.444528,
   **   ~~~   ** Supply-to-demand interface deck 1 energy check value iteration history trace: 3089.888594,3089.888593,3089.888593,3089.888593,3089.888593,3089.888593,3089.888593,3089.888592,3089.888592,3089.888592,
   ** Warning ** SimHVAC: Maximum iterations (20) exceeded for all HVAC loops, at ANNUAL, 04/08 10:15 - 10:30
   **   ~~~   ** The solution for one or more of the Air Loop HVAC systems did not appear to converge
   **   ~~~   ** Air System Named = CENTRAL SYSTEM did not converge for mass flow rate
   **   ~~~   ** Check values should be zero. Most Recent values listed first.
   **   ~~~   ** Demand-to-Supply interface mass flow rate check value iteration history trace: 7.415760E-002,7.415760E-002,7.415760E-002,7.415760E-002,7.415760E-002,7.415760E-002,7.415760E-002,7.415760E-002,7.415760E-002,7.415760E-002,
   **   ~~~   ** Supply-to-demand interface deck 1 mass flow rate check value iteration history trace: 7.415760E-002,7.415760E-002,7.415760E-002,7.415760E-002,7.415760E-002,7.415760E-002,7.415760E-002,7.415760E-002,7.415760E-002,7.415760E-002,
   **   ~~~   ** Air System Named = CENTRAL SYSTEM did not converge for energy
   **   ~~~   ** Check values should be zero. Most Recent values listed first.
   **   ~~~   ** Demand-to-Supply interface energy check value iteration history trace: 1465.406360,1465.406360,1465.406360,1465.406360,1465.406360,1465.406360,1465.406360,1465.406360,1465.406359,1465.406359,
   **   ~~~   ** Supply-to-demand interface deck 1 energy check value iteration history trace: 2645.618968,2645.618967,2645.618967,2645.618967,2645.618967,2645.618967,2645.618967,2645.618967,2645.618967,2645.618966,
   ** Warning ** SimHVAC: Maximum iterations (20) exceeded for all HVAC loops, at ANNUAL, 04/23 22:30 - 22:38
   **   ~~~   ** The solution for one or more of the Air Loop HVAC systems did not appear to converge
   **   ~~~   ** Air System Named = CENTRAL SYSTEM did not converge for mass flow rate
   **   ~~~   ** Check values should be zero. Most Recent values listed first.
   **   ~~~   ** Demand-to-Supply interface mass flow rate check value iteration history trace: 9.202816E-002,9.202816E-002,9.202816E-002,9.202816E-002,9.202816E-002,9.202816E-002,9.202816E-002,9.202816E-002,9.202816E-002,9.202816E-002,
   **   ~~~   ** Supply-to-demand interface deck 1 mass flow rate check value iteration history trace: 9.202816E-002,9.202816E-002,9.202816E-002,9.202816E-002,9.202816E-002,9.202816E-002,9.202816E-002,9.202816E-002,9.202816E-002,9.202816E-002,
   **   ~~~   ** Air System Named = CENTRAL SYSTEM did not converge for energy
   **   ~~~   ** Check values should be zero. Most Recent values listed first.
   **   ~~~   ** Demand-to-Supply interface energy check value iteration history trace: 1722.279579,1722.279579,1722.279578,1722.279578,1722.279578,1722.279578,1722.279578,1722.279578,1722.279578,1722.279578,
   **   ~~~   ** Supply-to-demand interface deck 1 energy check value iteration history trace: 2667.015513,2667.015513,2667.015513,2667.015513,2667.015512,2667.015512,2667.015512,2667.015512,2667.015512,2667.015512,
   ** Warning ** SimHVAC: Maximum iterations (20) exceeded for all HVAC loops, at ANNUAL, 05/01 19:45 - 20:00
   **   ~~~   ** The solution for one or more of the Air Loop HVAC systems did not appear to converge
   **   ~~~   ** Air System Named = CENTRAL SYSTEM did not converge for mass flow rate
   **   ~~~   ** Check values should be zero. Most Recent values listed first.
   **   ~~~   ** Demand-to-Supply interface mass flow rate check value iteration history trace: 8.760947E-002,8.760947E-002,8.760947E-002,8.760947E-002,8.760947E-002,8.760947E-002,8.760947E-002,8.760947E-002,8.760947E-002,8.760947E-002,
   **   ~~~   ** Supply-to-demand interface deck 1 mass flow rate check value iteration history trace: 8.760947E-002,8.760947E-002,8.760947E-002,8.760947E-002,8.760947E-002,8.760947E-002,8.760947E-002,8.760947E-002,8.760947E-002,8.760947E-002,
   **   ~~~   ** Air System Named = CENTRAL SYSTEM did not converge for energy
   **   ~~~   ** Check values should be zero. Most Recent values listed first.
   **   ~~~   ** Demand-to-Supply interface energy check value iteration history trace: 1727.888104,1727.888104,1727.888104,1727.888104,1727.888104,1727.888104,1727.888104,1727.888104,1727.888104,1727.888104,
   **   ~~~   ** Supply-to-demand interface deck 1 energy check value iteration history trace: 2962.352637,2962.352637,2962.352637,2962.352637,2962.352637,2962.352637,2962.352637,2962.352636,2962.352636,2962.352636,
   ** Warning ** SimHVAC: Maximum iterations (20) exceeded for all HVAC loops, at ANNUAL, 05/07 20:45 - 21:00
   **   ~~~   ** The solution for one or more of the Air Loop HVAC systems did not appear to converge
   **   ~~~   ** Air System Named = CENTRAL SYSTEM did not converge for mass flow rate
   **   ~~~   ** Check values should be zero. Most Recent values listed first.
   **   ~~~   ** Demand-to-Supply interface mass flow rate check value iteration history trace: 8.087665E-002,8.087665E-002,8.087665E-002,8.087665E-002,8.087665E-002,8.087665E-002,8.087665E-002,8.087665E-002,8.087665E-002,8.087665E-002,
   **   ~~~   ** Supply-to-demand interface deck 1 mass flow rate check value iteration history trace: 8.087665E-002,8.087665E-002,8.087665E-002,8.087665E-002,8.087665E-002,8.087665E-002,8.087665E-002,8.087665E-002,8.087665E-002,8.087665E-002,
   **   ~~~   ** Air System Named = CENTRAL SYSTEM did not converge for energy
   **   ~~~   ** Check values should be zero. Most Recent values listed first.
   **   ~~~   ** Demand-to-Supply interface energy check value iteration history trace: 1586.599953,1586.599953,1586.599953,1586.599953,1586.599953,1586.599953,1586.599953,1586.599953,1586.599953,1586.599953,
   **   ~~~   ** Supply-to-demand interface deck 1 energy check value iteration history trace: 2790.371775,2790.371775,2790.371775,2790.371775,2790.371775,2790.371775,2790.371775,2790.371774,2790.371774,2790.371774,
   ** Warning ** SimHVAC: Maximum iterations (20) exceeded for all HVAC loops, at ANNUAL, 05/08 14:00 - 14:05
   **   ~~~   ** The solution for one or more of the Air Loop HVAC systems did not appear to converge
   **   ~~~   ** Air System Named = CENTRAL SYSTEM did not converge for mass flow rate
   **   ~~~   ** Check values should be zero. Most Recent values listed first.
   **   ~~~   ** Demand-to-Supply interface mass flow rate check value iteration history trace: 7.535941E-002,7.535941E-002,7.535941E-002,7.535941E-002,7.535941E-002,7.535941E-002,7.535941E-002,7.535941E-002,7.535941E-002,7.535941E-002,
   **   ~~~   ** Supply-to-demand interface deck 1 mass flow rate check value iteration history trace: 7.535941E-002,7.535941E-002,7.535941E-002,7.535941E-002,7.535941E-002,7.535941E-002,7.535941E-002,7.535941E-002,7.535941E-002,7.535941E-002,
   **   ~~~   ** Air System Named = CENTRAL SYSTEM did not converge for energy
   **   ~~~   ** Check values should be zero. Most Recent values listed first.
   **   ~~~   ** Demand-to-Supply interface energy check value iteration history trace: 1486.825418,1486.825418,1486.825418,1486.825418,1486.825418,1486.825418,1486.825418,1486.825418,1486.825418,1486.825418,
   **   ~~~   ** Supply-to-demand interface deck 1 energy check value iteration history trace: 2557.161185,2557.161185,2557.161185,2557.161185,2557.161185,2557.161184,2557.161184,2557.161184,2557.161184,2557.161184,
   ** Warning ** SimHVAC: Maximum iterations (20) exceeded for all HVAC loops, at ANNUAL, 05/19 16:15 - 16:30
   **   ~~~   ** The solution for one or more of the Air Loop HVAC systems did not appear to converge
   **   ~~~   ** Air System Named = CENTRAL SYSTEM did not converge for mass flow rate
   **   ~~~   ** Check values should be zero. Most Recent values listed first.
   **   ~~~   ** Demand-to-Supply interface mass flow rate check value iteration history trace: 6.600855E-002,6.600855E-002,6.600855E-002,6.600855E-002,6.600855E-002,6.600855E-002,6.600855E-002,6.600855E-002,6.600855E-002,6.600855E-002,
   **   ~~~   ** Supply-to-demand interface deck 1 mass flow rate check value iteration history trace: 6.600855E-002,6.600855E-002,6.600855E-002,6.600855E-002,6.600855E-002,6.600855E-002,6.600855E-002,6.600855E-002,6.600855E-002,6.600855E-002,
   **   ~~~   ** Air System Named = CENTRAL SYSTEM did not converge for energy
   **   ~~~   ** Check values should be zero. Most Recent values listed first.
   **   ~~~   ** Demand-to-Supply interface energy check value iteration history trace: 1275.447263,1275.447263,1275.447263,1275.447262,1275.447262,1275.447262,1275.447262,1275.447262,1275.447262,1275.447262,
   **   ~~~   ** Supply-to-demand interface deck 1 energy check value iteration history trace: 2309.176119,2309.176119,2309.176119,2309.176119,2309.176119,2309.176118,2309.176118,2309.176118,2309.176118,2309.176118,
   ** Warning ** SimHVAC: Maximum iterations (20) exceeded for all HVAC loops, at ANNUAL, 08/25 16:30 - 16:45
   **   ~~~   ** The solution for one or more of the Air Loop HVAC systems did not appear to converge
   **   ~~~   ** Air System Named = CENTRAL SYSTEM did not converge for mass flow rate
   **   ~~~   ** Check values should be zero. Most Recent values listed first.
   **   ~~~   ** Demand-to-Supply interface mass flow rate check value iteration history trace: 8.395729E-002,8.395729E-002,8.395729E-002,8.395729E-002,8.395729E-002,8.395729E-002,8.395729E-002,8.395729E-002,8.395729E-002,8.395729E-002,
   **   ~~~   ** Supply-to-demand interface deck 1 mass flow rate check value iteration history trace: 8.395729E-002,8.395729E-002,8.395729E-002,8.395729E-002,8.395729E-002,8.395729E-002,8.395729E-002,8.395729E-002,8.395729E-002,8.395729E-002,
   **   ~~~   ** Air System Named = CENTRAL SYSTEM did not converge for energy
   **   ~~~   ** Check values should be zero. Most Recent values listed first.
   **   ~~~   ** Demand-to-Supply interface energy check value iteration history trace: 1951.809355,1951.809356,1951.809356,1951.809356,1951.809356,1951.809356,1951.809356,1951.809356,1951.809356,1951.809357,
   **   ~~~   ** Supply-to-demand interface deck 1 energy check value iteration history trace: 937.987187,937.987187,937.987187,937.987187,937.987187,937.987187,937.987187,937.987188,937.987188,937.987188,
   ** Warning ** SimHVAC: Maximum iterations (20) exceeded for all HVAC loops, at ANNUAL, 08/27 11:25 - 11:30
   **   ~~~   ** The solution for one or more of the Air Loop HVAC systems did not appear to converge
   **   ~~~   ** Air System Named = CENTRAL SYSTEM did not converge for mass flow rate
   **   ~~~   ** Check values should be zero. Most Recent values listed first.
   **   ~~~   ** Demand-to-Supply interface mass flow rate check value iteration history trace: 9.341975E-002,9.341975E-002,9.341975E-002,9.341975E-002,9.341975E-002,9.341975E-002,9.341975E-002,9.341975E-002,9.341975E-002,9.341975E-002,
   **   ~~~   ** Supply-to-demand interface deck 1 mass flow rate check value iteration history trace: 9.341975E-002,9.341975E-002,9.341975E-002,9.341975E-002,9.341975E-002,9.341975E-002,9.341975E-002,9.341975E-002,9.341975E-002,9.341975E-002,
   **   ~~~   ** Air System Named = CENTRAL SYSTEM did not converge for energy
   **   ~~~   ** Check values should be zero. Most Recent values listed first.
   **   ~~~   ** Demand-to-Supply interface energy check value iteration history trace: 2209.635803,2209.635803,2209.635804,2209.635804,2209.635804,2209.635804,2209.635804,2209.635804,2209.635805,2209.635805,
   **   ~~~   ** Supply-to-demand interface deck 1 energy check value iteration history trace: 1098.556744,1098.556744,1098.556744,1098.556744,1098.556744,1098.556744,1098.556744,1098.556744,1098.556745,1098.556745,
   ** Warning ** SimHVAC: Maximum iterations (20) exceeded for all HVAC loops, at ANNUAL, 09/15 07:45 - 07:50
   **   ~~~   ** The solution for one or more of the Air Loop HVAC systems did not appear to converge
   **   ~~~   ** Air System Named = CENTRAL SYSTEM did not converge for mass flow rate
   **   ~~~   ** Check values should be zero. Most Recent values listed first.
   **   ~~~   ** Demand-to-Supply interface mass flow rate check value iteration history trace: 1.587949E-002,1.587949E-002,1.587949E-002,1.587949E-002,1.587949E-002,1.587949E-002,1.587949E-002,1.587949E-002,1.587949E-002,1.587949E-002,
   **   ~~~   ** Supply-to-demand interface deck 1 mass flow rate check value iteration history trace: 1.587949E-002,1.587949E-002,1.587949E-002,1.587949E-002,1.587949E-002,1.587949E-002,1.587949E-002,1.587949E-002,1.587949E-002,1.587949E-002,
   **   ~~~   ** Air System Named = CENTRAL SYSTEM did not converge for energy
   **   ~~~   ** Check values should be zero. Most Recent values listed first.
   **   ~~~   ** Demand-to-Supply interface energy check value iteration history trace: 311.972274,311.972274,311.972274,311.972274,311.972274,311.972274,311.972274,311.972274,311.972274,311.972274,
   **   ~~~   ** Supply-to-demand interface deck 1 energy check value iteration history trace: 554.325744,554.325744,554.325744,554.325744,554.325744,554.325744,554.325744,554.325744,554.325744,554.325744,
   ** Warning ** SimHVAC: Maximum iterations (20) exceeded for all HVAC loops, at ANNUAL, 10/10 08:15 - 08:30
   **   ~~~   ** The solution for one or more of the Air Loop HVAC systems did not appear to converge
   **   ~~~   ** Air System Named = CENTRAL SYSTEM did not converge for mass flow rate
   **   ~~~   ** Check values should be zero. Most Recent values listed first.
   **   ~~~   ** Demand-to-Supply interface mass flow rate check value iteration history trace: 7.913485E-002,7.913485E-002,7.913485E-002,7.913485E-002,7.913485E-002,7.913485E-002,7.913485E-002,7.913485E-002,7.913485E-002,7.913485E-002,
   **   ~~~   ** Supply-to-demand interface deck 1 mass flow rate check value iteration history trace: 7.913485E-002,7.913485E-002,7.913485E-002,7.913485E-002,7.913485E-002,7.913485E-002,7.913485E-002,7.913485E-002,7.913485E-002,7.913485E-002,
   **   ~~~   ** Air System Named = CENTRAL SYSTEM did not converge for energy
   **   ~~~   ** Check values should be zero. Most Recent values listed first.
   **   ~~~   ** Demand-to-Supply interface energy check value iteration history trace: 1567.979228,1567.979228,1567.979228,1567.979228,1567.979227,1567.979227,1567.979227,1567.979227,1567.979227,1567.979227,
   **   ~~~   ** Supply-to-demand interface deck 1 energy check value iteration history trace: 2762.435480,2762.435480,2762.435479,2762.435479,2762.435479,2762.435479,2762.435479,2762.435479,2762.435479,2762.435479,
   ************* Simulation Error Summary *************
   ** Warning ** The following Report Variables were requested but not generated -- check.rdd file
   **   ~~~   ** Either the IDF did not contain these elements, the variable name is misspelled,
   **   ~~~   ** or the requested variable is an advanced output which requires Output : Diagnostics, DisplayAdvancedReportVariables;
   ************* Key=*, VarName=BASEBOARD TOTAL HEATING ENERGY, Frequency=
   ************* Key=*, VarName=WATER HEATER NATURALGAS ENERGY, Frequency=
   ************* Key=*, VarName=COOLING COIL TOTAL HEATING ENERGY, Frequency=
   ************* There are 34 unused schedules in input.
   ************* There are 388 unused week schedules in input.
   ************* There are 396 unused day schedules in input.
   ************* Use Output:Diagnostics,DisplayUnusedSchedules; to see them.
   *************
   ************* ===== Recurring Error Summary =====
   ************* The following recurring error messages occurred.
   *************
   *************  ** Warning ** "TOTAL HOT WATER LOAD" - Target water temperature should be less than or equal to the hot water temperature error continues...
   *************  **   ~~~   **   This error occurred 76933 total times;
   *************  **   ~~~   **   during Warmup 0 times;
   *************  **   ~~~   **   during Sizing 0 times.
   *************  **   ~~~   **   Max=12.150237  Min=3.119362E-004
   *************
   *************
   ************* ===== Final Error Summary =====
   ************* The following error categories occurred.  Consider correcting or noting.
   ************* Nominally Unused Constructions
   ************* ..The nominally unused constructions warning is provided to alert you to potential conditions that can cause
   ************* ..extra time during simulation. Each construction is calculated by the algorithm indicated in the HeatBalanceAlgorithm
   ************* ..object. You may remove the constructions indicated (when you use the DisplayExtraWarnings option).
   *************
   ************* EnergyPlus Warmup Error Summary. During Warmup: 0 Warning; 0 Severe Errors.
   ************* EnergyPlus Sizing Error Summary. During Sizing: 4 Warning; 0 Severe Errors.
   ************* EnergyPlus Completed Successfully-- 76961 Warning; 0 Severe Errors; Elapsed Time=00hr 04min 34.31sec
