Program Version,EnergyPlus, Version 22.2.0-c249759bad, YMD=2023.09.01 14:50,
   ************* Beginning Zone Sizing Calculations
   ** Warning ** ProcessScheduleInput: Schedule:Constant="ALWAYS ON DISCRETE", Schedule Type Limits Name="ONOFF" not found -- will not be validated
   ** Warning ** Foundation:Kiva="KIVA FOUNDATION", no Interior Horizontal Insulation Material Name defined
   **   ~~~   ** Interior Horizontal Insulation Depth will not be used.
   ** Warning ** CheckUsedConstructions: There are 15 nominally unused constructions in input.
   **   ~~~   ** Each Unused construction is shown.
   ************* Construction=INTERIOR FLOOR
   ************* Construction=INTERIOR WINDOW
   ************* Construction=EXTERIOR DOOR
   ************* Construction=INTERIOR DOOR
   ************* Construction=GABLE CONSTRUCTION
   ************* Construction=CRAWL_FLOOR
   ************* Construction=INSULATED PIPE
   ************* Construction=PLAIN PIPE
   ************* Construction=TDD PIPE
   ************* Construction=TDD DOME
   ************* Construction=TDD DIFFUSER
   ************* Construction=CRAWL WALL
   ************* Construction=CEILING-FLOOR-LAYER
   ************* Construction=SLAB CONSTRUCTION W FULL R10 INSULATION
   ************* Construction=SLAB CONSTRUCTION W FULL R5 INSULATION
   ** Warning ** GetDXCoils: Coil:Heating:DX:SingleSpeed="DX_HEATING_COIL" curve values
   **   ~~~   ** ... Defrost Energy Input Ratio Function of Temperature Curve Name = DEFROSTEIR output is not equal to 1.0 (+ or - 10%) at rated conditions.
   **   ~~~   ** ... Curve output at rated conditions = 0.152
   ************* Beginning System Sizing Calculations
   ************* Beginning Plant Sizing Calculations
   ** Warning ** Coil:WaterHeating:AirToWaterHeatPump:Wrapped "HEAT PUMP WATER HEATER EVAPORATOR": Rated air volume flow rate per watt of rated total water heating capacity is out of range
   **   ~~~   ** Min Rated Vol Flow Per Watt=[4.027E-005], Rated Vol Flow Per Watt=[1.386E-004], Max Rated Vol Flow Per Watt=[8.056E-005]. See Input-Output Reference Manual for valid range.
   ** Warning ** Water heater = WATER HEATER TANK:  Recovery Efficiency and Energy Factor could not be calculated during the test for standard ratings
   **   ~~~   ** Setpoint was never recovered and/or heater never turned on
   ** Warning ** Check input. Pump nominal power or motor efficiency is set to 0, for pump=MAINS PRESSURE
   ** Warning ** Output:Meter: invalid Key Name="ELECTRIC_RANGE:INTERIOREQUIPMENT:ELECTRICITY" - not found.
   ** Warning ** Output:Meter: invalid Key Name="ELECTRIC_DRYER:INTERIOREQUIPMENT:ELECTRICITY" - not found.
   ** Warning ** Output:Meter: invalid Key Name="HEATRECOVERY:ELECTRICITY" - not found.
   ** Warning ** Output:Meter: invalid Key Name="HEATING:NATURALGAS" - not found.
   ** Warning ** Output:Meter: invalid Key Name="WATERSYSTEMS:NATURALGAS" - not found.
   ** Warning ** Output:Meter: invalid Key Name="PROPANE:FACILITY" - not found.
   ** Warning ** Output:Meter: invalid Key Name="HEATING:PROPANE" - not found.
   ************* Testing Individual Branch Integrity
   ************* All Branches passed integrity testing
   ************* Testing Individual Supply Air Path Integrity
   ************* All Supply Air Paths passed integrity testing
   ************* Testing Individual Return Air Path Integrity
   ************* All Return Air Paths passed integrity testing
   ************* No node connection errors were found.
   ************* Beginning Simulation
   ** Warning ** AirflowNetwork::Solver::validate_distribution: Heat pump water heater is simulated along with an AirflowNetwork but is not included in the AirflowNetwork.
   ** Warning ** CalcEquipmentFlowRates: "TOTAL HOT WATER LOAD" - Target water temperature is greater than the hot water temperature by (1.64 C)
   **   ~~~   **  Environment=EXTREME_WINTER, at Simulation time=12/22 06:00 - 06:15
   **   ~~~   ** ...target water temperature     = 53.33 C
   **   ~~~   ** ...hot water temperature        = 51.69 C
   **   ~~~   ** ...Target water temperature should be less than or equal to the hot water temperature. Verify temperature setpoints and schedules.
   ** Warning ** SimHVAC: Maximum iterations (20) exceeded for all HVAC loops, at ANNUAL, 01/09 13:23 - 13:30
   **   ~~~   ** The solution for one or more of the Air Loop HVAC systems did not appear to converge
   **   ~~~   ** Air System Named = CENTRAL SYSTEM did not converge for mass flow rate
   **   ~~~   ** Check values should be zero. Most Recent values listed first.
   **   ~~~   ** Demand-to-Supply interface mass flow rate check value iteration history trace: 9.958103E-002,9.958103E-002,9.958103E-002,9.958103E-002,9.958103E-002,9.958103E-002,9.958103E-002,9.958103E-002,9.958103E-002,9.958103E-002,
   **   ~~~   ** Supply-to-demand interface deck 1 mass flow rate check value iteration history trace: 9.958103E-002,9.958103E-002,9.958103E-002,9.958103E-002,9.958103E-002,9.958103E-002,9.958103E-002,9.958103E-002,9.958103E-002,9.958103E-002,
   **   ~~~   ** Air System Named = CENTRAL SYSTEM did not converge for energy
   **   ~~~   ** Check values should be zero. Most Recent values listed first.
   **   ~~~   ** Demand-to-Supply interface energy check value iteration history trace: 1975.815892,1975.815892,1975.815892,1975.815892,1975.815891,1975.815891,1975.815891,1975.815891,1975.815891,1975.815891,
   **   ~~~   ** Supply-to-demand interface deck 1 energy check value iteration history trace: 3058.414837,3058.414837,3058.414837,3058.414836,3058.414836,3058.414836,3058.414836,3058.414836,3058.414835,3058.414835,
   ** Warning ** SimHVAC: Maximum iterations (20) exceeded for all HVAC loops, at ANNUAL, 02/25 18:39 - 18:42
   **   ~~~   ** The solution for one or more of the Air Loop HVAC systems did not appear to converge
   **   ~~~   ** Air System Named = CENTRAL SYSTEM did not converge for mass flow rate
   **   ~~~   ** Check values should be zero. Most Recent values listed first.
   **   ~~~   ** Demand-to-Supply interface mass flow rate check value iteration history trace: 8.900587E-002,8.900587E-002,8.900587E-002,8.900587E-002,8.900587E-002,8.900587E-002,8.900587E-002,8.900587E-002,8.900587E-002,8.900587E-002,
   **   ~~~   ** Supply-to-demand interface deck 1 mass flow rate check value iteration history trace: 8.900587E-002,8.900587E-002,8.900587E-002,8.900587E-002,8.900587E-002,8.900587E-002,8.900587E-002,8.900587E-002,8.900587E-002,8.900587E-002,
   **   ~~~   ** Air System Named = CENTRAL SYSTEM did not converge for energy
   **   ~~~   ** Check values should be zero. Most Recent values listed first.
   **   ~~~   ** Demand-to-Supply interface energy check value iteration history trace: 1757.584070,1757.584070,1757.584069,1757.584069,1757.584069,1757.584069,1757.584069,1757.584069,1757.584069,1757.584069,
   **   ~~~   ** Supply-to-demand interface deck 1 energy check value iteration history trace: 2770.425063,2770.425063,2770.425063,2770.425063,2770.425062,2770.425062,2770.425062,2770.425062,2770.425062,2770.425061,
   ** Warning ** SimHVAC: Maximum iterations (20) exceeded for all HVAC loops, at ANNUAL, 03/05 10:18 - 10:21
   **   ~~~   ** The solution for one or more of the Air Loop HVAC systems did not appear to converge
   **   ~~~   ** Air System Named = CENTRAL SYSTEM did not converge for mass flow rate
   **   ~~~   ** Check values should be zero. Most Recent values listed first.
   **   ~~~   ** Demand-to-Supply interface mass flow rate check value iteration history trace: 8.392796E-002,8.392796E-002,8.392796E-002,8.392796E-002,8.392796E-002,8.392796E-002,8.392796E-002,8.392796E-002,8.392796E-002,8.392796E-002,
   **   ~~~   ** Supply-to-demand interface deck 1 mass flow rate check value iteration history trace: 8.392796E-002,8.392796E-002,8.392796E-002,8.392796E-002,8.392796E-002,8.392796E-002,8.392796E-002,8.392796E-002,8.392796E-002,8.392796E-002,
   **   ~~~   ** Air System Named = CENTRAL SYSTEM did not converge for energy
   **   ~~~   ** Check values should be zero. Most Recent values listed first.
   **   ~~~   ** Demand-to-Supply interface energy check value iteration history trace: 1663.295824,1663.295824,1663.295824,1663.295824,1663.295824,1663.295824,1663.295824,1663.295823,1663.295823,1663.295823,
   **   ~~~   ** Supply-to-demand interface deck 1 energy check value iteration history trace: 2983.527683,2983.527683,2983.527683,2983.527682,2983.527682,2983.527682,2983.527682,2983.527682,2983.527682,2983.527682,
   ** Warning ** SimHVAC: Maximum iterations (20) exceeded for all HVAC loops, at ANNUAL, 03/05 21:53 - 22:00
   **   ~~~   ** The solution for one or more of the Air Loop HVAC systems did not appear to converge
   **   ~~~   ** Air System Named = CENTRAL SYSTEM did not converge for mass flow rate
   **   ~~~   ** Check values should be zero. Most Recent values listed first.
   **   ~~~   ** Demand-to-Supply interface mass flow rate check value iteration history trace: 9.997012E-002,9.997012E-002,9.997012E-002,9.997012E-002,9.997012E-002,9.997012E-002,9.997012E-002,9.997012E-002,9.997012E-002,9.997012E-002,
   **   ~~~   ** Supply-to-demand interface deck 1 mass flow rate check value iteration history trace: 9.997012E-002,9.997012E-002,9.997012E-002,9.997012E-002,9.997012E-002,9.997012E-002,9.997012E-002,9.997012E-002,9.997012E-002,9.997012E-002,
   **   ~~~   ** Air System Named = CENTRAL SYSTEM did not converge for energy
   **   ~~~   ** Check values should be zero. Most Recent values listed first.
   **   ~~~   ** Demand-to-Supply interface energy check value iteration history trace: 1969.176874,1969.176874,1969.176874,1969.176874,1969.176874,1969.176874,1969.176874,1969.176873,1969.176873,1969.176873,
   **   ~~~   ** Supply-to-demand interface deck 1 energy check value iteration history trace: 3030.054918,3030.054917,3030.054917,3030.054917,3030.054917,3030.054917,3030.054917,3030.054916,3030.054916,3030.054916,
   ** Warning ** SimHVAC: Maximum iterations (20) exceeded for all HVAC loops, at ANNUAL, 03/18 11:15 - 11:30
   **   ~~~   ** The solution for one or more of the Air Loop HVAC systems did not appear to converge
   **   ~~~   ** Air System Named = CENTRAL SYSTEM did not converge for mass flow rate
   **   ~~~   ** Check values should be zero. Most Recent values listed first.
   **   ~~~   ** Demand-to-Supply interface mass flow rate check value iteration history trace: 6.092465E-002,6.092465E-002,6.092465E-002,6.092465E-002,6.092465E-002,6.092465E-002,6.092465E-002,6.092465E-002,6.092465E-002,6.092465E-002,
   **   ~~~   ** Supply-to-demand interface deck 1 mass flow rate check value iteration history trace: 6.092465E-002,6.092465E-002,6.092465E-002,6.092465E-002,6.092465E-002,6.092465E-002,6.092465E-002,6.092465E-002,6.092465E-002,6.092465E-002,
   **   ~~~   ** Air System Named = CENTRAL SYSTEM did not converge for energy
   **   ~~~   ** Check values should be zero. Most Recent values listed first.
   **   ~~~   ** Demand-to-Supply interface energy check value iteration history trace: 1207.352617,1207.352617,1207.352616,1207.352616,1207.352616,1207.352616,1207.352616,1207.352616,1207.352616,1207.352616,
   **   ~~~   ** Supply-to-demand interface deck 1 energy check value iteration history trace: 2245.414587,2245.414587,2245.414587,2245.414587,2245.414587,2245.414587,2245.414587,2245.414586,2245.414586,2245.414586,
   ** Warning ** SimHVAC: Maximum iterations (20) exceeded for all HVAC loops, at ANNUAL, 03/18 11:20 - 11:25
   **   ~~~   ** The solution for one or more of the Air Loop HVAC systems did not appear to converge
   **   ~~~   ** Air System Named = CENTRAL SYSTEM did not converge for mass flow rate
   **   ~~~   ** Check values should be zero. Most Recent values listed first.
   **   ~~~   ** Demand-to-Supply interface mass flow rate check value iteration history trace: 6.072494E-002,6.072494E-002,6.072494E-002,6.072494E-002,6.072494E-002,6.072494E-002,6.072494E-002,6.072494E-002,6.072494E-002,6.072494E-002,
   **   ~~~   ** Supply-to-demand interface deck 1 mass flow rate check value iteration history trace: 6.072494E-002,6.072494E-002,6.072494E-002,6.072494E-002,6.072494E-002,6.072494E-002,6.072494E-002,6.072494E-002,6.072494E-002,6.072494E-002,
   **   ~~~   ** Air System Named = CENTRAL SYSTEM did not converge for energy
   **   ~~~   ** Check values should be zero. Most Recent values listed first.
   **   ~~~   ** Demand-to-Supply interface energy check value iteration history trace: 1203.499466,1203.499466,1203.499466,1203.499466,1203.499466,1203.499466,1203.499466,1203.499466,1203.499466,1203.499465,
   **   ~~~   ** Supply-to-demand interface deck 1 energy check value iteration history trace: 2238.166272,2238.166272,2238.166272,2238.166272,2238.166272,2238.166272,2238.166272,2238.166272,2238.166272,2238.166272,
   ** Warning ** SimHVAC: Maximum iterations (20) exceeded for all HVAC loops, at ANNUAL, 03/19 10:45 - 10:49
   **   ~~~   ** The solution for one or more of the Air Loop HVAC systems did not appear to converge
   **   ~~~   ** Air System Named = CENTRAL SYSTEM did not converge for mass flow rate
   **   ~~~   ** Check values should be zero. Most Recent values listed first.
   **   ~~~   ** Demand-to-Supply interface mass flow rate check value iteration history trace: 8.155111E-002,8.155111E-002,8.155111E-002,8.155111E-002,8.155111E-002,8.155111E-002,8.155111E-002,8.155111E-002,8.155111E-002,8.155111E-002,
   **   ~~~   ** Supply-to-demand interface deck 1 mass flow rate check value iteration history trace: 8.155111E-002,8.155111E-002,8.155111E-002,8.155111E-002,8.155111E-002,8.155111E-002,8.155111E-002,8.155111E-002,8.155111E-002,8.155111E-002,
   **   ~~~   ** Air System Named = CENTRAL SYSTEM did not converge for energy
   **   ~~~   ** Check values should be zero. Most Recent values listed first.
   **   ~~~   ** Demand-to-Supply interface energy check value iteration history trace: 1616.049400,1616.049400,1616.049399,1616.049399,1616.049399,1616.049399,1616.049399,1616.049399,1616.049399,1616.049399,
   **   ~~~   ** Supply-to-demand interface deck 1 energy check value iteration history trace: 2866.444827,2866.444827,2866.444827,2866.444827,2866.444826,2866.444826,2866.444826,2866.444826,2866.444826,2866.444826,
   ** Warning ** SimHVAC: Maximum iterations (20) exceeded for all HVAC loops, at ANNUAL, 04/19 08:15 - 08:20
   **   ~~~   ** The solution for one or more of the Air Loop HVAC systems did not appear to converge
   **   ~~~   ** Air System Named = CENTRAL SYSTEM did not converge for mass flow rate
   **   ~~~   ** Check values should be zero. Most Recent values listed first.
   **   ~~~   ** Demand-to-Supply interface mass flow rate check value iteration history trace: 5.652493E-002,5.652493E-002,5.652493E-002,5.652493E-002,5.652493E-002,5.652493E-002,5.652493E-002,5.652493E-002,5.652493E-002,5.652493E-002,
   **   ~~~   ** Supply-to-demand interface deck 1 mass flow rate check value iteration history trace: 5.652493E-002,5.652493E-002,5.652493E-002,5.652493E-002,5.652493E-002,5.652493E-002,5.652493E-002,5.652493E-002,5.652493E-002,5.652493E-002,
   **   ~~~   ** Air System Named = CENTRAL SYSTEM did not converge for energy
   **   ~~~   ** Check values should be zero. Most Recent values listed first.
   **   ~~~   ** Demand-to-Supply interface energy check value iteration history trace: 1115.848188,1115.848188,1115.848188,1115.848188,1115.848188,1115.848188,1115.848188,1115.848188,1115.848188,1115.848188,
   **   ~~~   ** Supply-to-demand interface deck 1 energy check value iteration history trace: 2208.736344,2208.736344,2208.736343,2208.736343,2208.736343,2208.736343,2208.736343,2208.736343,2208.736343,2208.736343,
   **   ~~~   ** Node named ZONE INLET NODE shows oscillating temperatures across iterations with a repeated value of 38.887073
   **   ~~~   ** Node named ZONE INLET NODE temperature [C] iteration history trace (most recent first): 38.887073,38.887073,38.887072,38.887072,38.887072,38.887072,38.887071,38.887071,38.887071,38.887071,
   ** Warning ** SimHVAC: Maximum iterations (20) exceeded for all HVAC loops, at ANNUAL, 04/28 07:15 - 07:30
   **   ~~~   ** The solution for one or more of the Air Loop HVAC systems did not appear to converge
   **   ~~~   ** Air System Named = CENTRAL SYSTEM did not converge for mass flow rate
   **   ~~~   ** Check values should be zero. Most Recent values listed first.
   **   ~~~   ** Demand-to-Supply interface mass flow rate check value iteration history trace: 4.553599E-002,4.553599E-002,4.553599E-002,4.553599E-002,4.553599E-002,4.553599E-002,4.553599E-002,4.553599E-002,4.553599E-002,4.553599E-002,
   **   ~~~   ** Supply-to-demand interface deck 1 mass flow rate check value iteration history trace: 4.553599E-002,4.553599E-002,4.553599E-002,4.553599E-002,4.553599E-002,4.553599E-002,4.553599E-002,4.553599E-002,4.553599E-002,4.553599E-002,
   **   ~~~   ** Air System Named = CENTRAL SYSTEM did not converge for energy
   **   ~~~   ** Check values should be zero. Most Recent values listed first.
   **   ~~~   ** Demand-to-Supply interface energy check value iteration history trace: 886.059390,886.059390,886.059390,886.059390,886.059390,886.059390,886.059390,886.059390,886.059390,886.059390,
   **   ~~~   ** Supply-to-demand interface deck 1 energy check value iteration history trace: 1741.064743,1741.064743,1741.064743,1741.064743,1741.064743,1741.064743,1741.064743,1741.064743,1741.064743,1741.064743,
   ** Warning ** SimHVAC: Maximum iterations (20) exceeded for all HVAC loops, at ANNUAL, 05/05 06:45 - 07:00
   **   ~~~   ** The solution for one or more of the Air Loop HVAC systems did not appear to converge
   **   ~~~   ** Air System Named = CENTRAL SYSTEM did not converge for mass flow rate
   **   ~~~   ** Check values should be zero. Most Recent values listed first.
   **   ~~~   ** Demand-to-Supply interface mass flow rate check value iteration history trace: 5.521278E-002,5.521278E-002,5.521278E-002,5.521278E-002,5.521278E-002,5.521278E-002,5.521278E-002,5.521278E-002,5.521278E-002,5.521278E-002,
   **   ~~~   ** Supply-to-demand interface deck 1 mass flow rate check value iteration history trace: 5.521278E-002,5.521278E-002,5.521278E-002,5.521278E-002,5.521278E-002,5.521278E-002,5.521278E-002,5.521278E-002,5.521278E-002,5.521278E-002,
   **   ~~~   ** Air System Named = CENTRAL SYSTEM did not converge for energy
   **   ~~~   ** Check values should be zero. Most Recent values listed first.
   **   ~~~   ** Demand-to-Supply interface energy check value iteration history trace: 1066.618895,1066.618895,1066.618895,1066.618895,1066.618895,1066.618895,1066.618895,1066.618895,1066.618895,1066.618895,
   **   ~~~   ** Supply-to-demand interface deck 1 energy check value iteration history trace: 2041.618143,2041.618143,2041.618143,2041.618143,2041.618143,2041.618143,2041.618143,2041.618143,2041.618143,2041.618143,
   ** Warning ** SimHVAC: Maximum iterations (20) exceeded for all HVAC loops, at ANNUAL, 05/10 05:45 - 06:00
   **   ~~~   ** The solution for one or more of the Air Loop HVAC systems did not appear to converge
   **   ~~~   ** Air System Named = CENTRAL SYSTEM did not converge for mass flow rate
   **   ~~~   ** Check values should be zero. Most Recent values listed first.
   **   ~~~   ** Demand-to-Supply interface mass flow rate check value iteration history trace: 7.105191E-002,7.105191E-002,7.105191E-002,7.105191E-002,7.105191E-002,7.105191E-002,7.105191E-002,7.105191E-002,7.105191E-002,7.105191E-002,
   **   ~~~   ** Supply-to-demand interface deck 1 mass flow rate check value iteration history trace: 7.105191E-002,7.105191E-002,7.105191E-002,7.105191E-002,7.105191E-002,7.105191E-002,7.105191E-002,7.105191E-002,7.105191E-002,7.105191E-002,
   **   ~~~   ** Air System Named = CENTRAL SYSTEM did not converge for energy
   **   ~~~   ** Check values should be zero. Most Recent values listed first.
   **   ~~~   ** Demand-to-Supply interface energy check value iteration history trace: 1399.274260,1399.274260,1399.274259,1399.274259,1399.274259,1399.274259,1399.274259,1399.274259,1399.274259,1399.274259,
   **   ~~~   ** Supply-to-demand interface deck 1 energy check value iteration history trace: 2515.454880,2515.454880,2515.454880,2515.454880,2515.454880,2515.454880,2515.454880,2515.454880,2515.454880,2515.454880,
   ** Warning ** SimHVAC: Maximum iterations (20) exceeded for all HVAC loops, at ANNUAL, 05/14 08:15 - 08:30
   **   ~~~   ** The solution for one or more of the Air Loop HVAC systems did not appear to converge
   **   ~~~   ** Air System Named = CENTRAL SYSTEM did not converge for mass flow rate
   **   ~~~   ** Check values should be zero. Most Recent values listed first.
   **   ~~~   ** Demand-to-Supply interface mass flow rate check value iteration history trace: 6.121799E-002,6.121799E-002,6.121799E-002,6.121799E-002,6.121799E-002,6.121799E-002,6.121799E-002,6.121799E-002,6.121799E-002,6.121799E-002,
   **   ~~~   ** Supply-to-demand interface deck 1 mass flow rate check value iteration history trace: 6.121799E-002,6.121799E-002,6.121799E-002,6.121799E-002,6.121799E-002,6.121799E-002,6.121799E-002,6.121799E-002,6.121799E-002,6.121799E-002,
   **   ~~~   ** Air System Named = CENTRAL SYSTEM did not converge for energy
   **   ~~~   ** Check values should be zero. Most Recent values listed first.
   **   ~~~   ** Demand-to-Supply interface energy check value iteration history trace: 1213.117756,1213.117756,1213.117756,1213.117756,1213.117756,1213.117756,1213.117756,1213.117756,1213.117756,1213.117756,
   **   ~~~   ** Supply-to-demand interface deck 1 energy check value iteration history trace: 2223.133187,2223.133186,2223.133186,2223.133186,2223.133186,2223.133186,2223.133186,2223.133186,2223.133186,2223.133186,
   ** Warning ** SimHVAC: Maximum iterations (20) exceeded for all HVAC loops, at ANNUAL, 05/14 09:41 - 09:45
   **   ~~~   ** The solution for one or more of the Air Loop HVAC systems did not appear to converge
   **   ~~~   ** Air System Named = CENTRAL SYSTEM did not converge for mass flow rate
   **   ~~~   ** Check values should be zero. Most Recent values listed first.
   **   ~~~   ** Demand-to-Supply interface mass flow rate check value iteration history trace: 7.427825E-002,7.427825E-002,7.427825E-002,7.427825E-002,7.427825E-002,7.427825E-002,7.427825E-002,7.427825E-002,7.427825E-002,7.427825E-002,
   **   ~~~   ** Supply-to-demand interface deck 1 mass flow rate check value iteration history trace: 7.427825E-002,7.427825E-002,7.427825E-002,7.427825E-002,7.427825E-002,7.427825E-002,7.427825E-002,7.427825E-002,7.427825E-002,7.427825E-002,
   **   ~~~   ** Air System Named = CENTRAL SYSTEM did not converge for energy
   **   ~~~   ** Check values should be zero. Most Recent values listed first.
   **   ~~~   ** Demand-to-Supply interface energy check value iteration history trace: 1466.094019,1466.094019,1466.094019,1466.094019,1466.094018,1466.094018,1466.094018,1466.094018,1466.094018,1466.094018,
   **   ~~~   ** Supply-to-demand interface deck 1 energy check value iteration history trace: 2754.499218,2754.499218,2754.499218,2754.499218,2754.499218,2754.499218,2754.499218,2754.499218,2754.499218,2754.499217,
   ** Warning ** SimHVAC: Maximum iterations (20) exceeded for all HVAC loops, at ANNUAL, 05/16 08:45 - 09:00
   **   ~~~   ** The solution for one or more of the Air Loop HVAC systems did not appear to converge
   **   ~~~   ** Air System Named = CENTRAL SYSTEM did not converge for mass flow rate
   **   ~~~   ** Check values should be zero. Most Recent values listed first.
   **   ~~~   ** Demand-to-Supply interface mass flow rate check value iteration history trace: 6.568832E-002,6.568832E-002,6.568832E-002,6.568832E-002,6.568832E-002,6.568832E-002,6.568832E-002,6.568832E-002,6.568832E-002,6.568832E-002,
   **   ~~~   ** Supply-to-demand interface deck 1 mass flow rate check value iteration history trace: 6.568832E-002,6.568832E-002,6.568832E-002,6.568832E-002,6.568832E-002,6.568832E-002,6.568832E-002,6.568832E-002,6.568832E-002,6.568832E-002,
   **   ~~~   ** Air System Named = CENTRAL SYSTEM did not converge for energy
   **   ~~~   ** Check values should be zero. Most Recent values listed first.
   **   ~~~   ** Demand-to-Supply interface energy check value iteration history trace: 1298.809754,1298.809754,1298.809754,1298.809753,1298.809753,1298.809753,1298.809753,1298.809752,1298.809752,1298.809752,
   **   ~~~   ** Supply-to-demand interface deck 1 energy check value iteration history trace: 2390.550281,2390.550281,2390.550281,2390.550280,2390.550280,2390.550279,2390.550279,2390.550278,2390.550278,2390.550278,
   **   ~~~   ** Node named ZONE INLET NODE shows oscillating temperatures across iterations with a repeated value of 36.216889
   **   ~~~   ** Node named ZONE INLET NODE temperature [C] iteration history trace (most recent first): 36.216889,36.216888,36.216888,36.216888,36.216888,36.216887,36.216887,36.216887,36.216887,36.216886,
   ************* Simulation Error Summary *************
   ** Warning ** The following Report Variables were requested but not generated -- check.rdd file
   **   ~~~   ** Either the IDF did not contain these elements, the variable name is misspelled,
   **   ~~~   ** or the requested variable is an advanced output which requires Output : Diagnostics, DisplayAdvancedReportVariables;
   ************* Key=*, VarName=BASEBOARD TOTAL HEATING ENERGY, Frequency=
   ************* Key=*, VarName=WATER HEATER NATURALGAS ENERGY, Frequency=
   ************* Key=*, VarName=COOLING COIL TOTAL HEATING ENERGY, Frequency=
   ************* There are 34 unused schedules in input.
   ************* There are 388 unused week schedules in input.
   ************* There are 396 unused day schedules in input.
   ************* Use Output:Diagnostics,DisplayUnusedSchedules; to see them.
   *************
   ************* ===== Recurring Error Summary =====
   ************* The following recurring error messages occurred.
   *************
   *************  ** Warning ** "TOTAL HOT WATER LOAD" - Target water temperature should be less than or equal to the hot water temperature error continues...
   *************  **   ~~~   **   This error occurred 88439 total times;
   *************  **   ~~~   **   during Warmup 0 times;
   *************  **   ~~~   **   during Sizing 0 times.
   *************  **   ~~~   **   Max=11.047544  Min=3.782096E-004
   *************
   *************  ** Warning ** SimHVAC: Exceeding Maximum iterations for all HVAC loops, during ANNUAL continues
   *************  **   ~~~   **   This error occurred 3 total times;
   *************  **   ~~~   **   during Warmup 0 times;
   *************  **   ~~~   **   during Sizing 0 times.
   *************
   *************
   ************* ===== Final Error Summary =====
   ************* The following error categories occurred.  Consider correcting or noting.
   ************* Nominally Unused Constructions
   ************* ..The nominally unused constructions warning is provided to alert you to potential conditions that can cause
   ************* ..extra time during simulation. Each construction is calculated by the algorithm indicated in the HeatBalanceAlgorithm
   ************* ..object. You may remove the constructions indicated (when you use the DisplayExtraWarnings option).
   *************
   ************* EnergyPlus Warmup Error Summary. During Warmup: 1 Warning; 0 Severe Errors.
   ************* EnergyPlus Sizing Error Summary. During Sizing: 4 Warning; 0 Severe Errors.
   ************* EnergyPlus Completed Successfully-- 88473 Warning; 0 Severe Errors; Elapsed Time=00hr 05min 43.31sec
