Program Version,EnergyPlus, Version 22.2.0-c249759bad, YMD=2023.09.01 14:36,
   ************* Beginning Zone Sizing Calculations
   ** Warning ** ProcessScheduleInput: Schedule:Constant="ALWAYS ON DISCRETE", Schedule Type Limits Name="ONOFF" not found -- will not be validated
   ** Warning ** Foundation:Kiva="KIVA FOUNDATION", no Interior Horizontal Insulation Material Name defined
   **   ~~~   ** Interior Horizontal Insulation Depth will not be used.
   ** Warning ** CheckUsedConstructions: There are 15 nominally unused constructions in input.
   **   ~~~   ** Each Unused construction is shown.
   ************* Construction=INTERIOR FLOOR
   ************* Construction=INTERIOR WINDOW
   ************* Construction=EXTERIOR DOOR
   ************* Construction=INTERIOR DOOR
   ************* Construction=GABLE CONSTRUCTION
   ************* Construction=CRAWL_FLOOR
   ************* Construction=INSULATED PIPE
   ************* Construction=PLAIN PIPE
   ************* Construction=TDD PIPE
   ************* Construction=TDD DOME
   ************* Construction=TDD DIFFUSER
   ************* Construction=CRAWL WALL
   ************* Construction=CEILING-FLOOR-LAYER
   ************* Construction=SLAB CONSTRUCTION W FULL R10 INSULATION
   ************* Construction=SLAB CONSTRUCTION W FULL R5 INSULATION
   ** Warning ** GetDXCoils: Coil:Heating:DX:SingleSpeed="DX_HEATING_COIL" curve values
   **   ~~~   ** ... Defrost Energy Input Ratio Function of Temperature Curve Name = DEFROSTEIR output is not equal to 1.0 (+ or - 10%) at rated conditions.
   **   ~~~   ** ... Curve output at rated conditions = 0.152
   ************* Beginning System Sizing Calculations
   ************* Beginning Plant Sizing Calculations
   ** Warning ** SizeDXCoil Coil:Cooling:DX:SingleSpeed DX_COOLING_COIL
   **   ~~~   ** ...Gross Rated Total Cooling Capacity [W] will be limited by the maximum rated volume flow per rated total capacity ratio.
   **   ~~~   ** ...DX coil volume flow rate ( m3/s ) = 0.215507
   **   ~~~   ** ...Requested capacity ( W ) = 3155.947
   **   ~~~   ** ...Requested flow/capacity ratio ( m3/s/W ) = 6.828E-005
   **   ~~~   ** ...Maximum flow/capacity ratio ( m3/s/W ) = 6.041E-005
   **   ~~~   ** ...Adjusted capacity ( W ) = 3567.413
   ** Warning ** Coil:WaterHeating:AirToWaterHeatPump:Wrapped "HEAT PUMP WATER HEATER EVAPORATOR": Rated air volume flow rate per watt of rated total water heating capacity is out of range
   **   ~~~   ** Min Rated Vol Flow Per Watt=[4.027E-005], Rated Vol Flow Per Watt=[1.386E-004], Max Rated Vol Flow Per Watt=[8.056E-005]. See Input-Output Reference Manual for valid range.
   ** Warning ** Water heater = WATER HEATER TANK:  Recovery Efficiency and Energy Factor could not be calculated during the test for standard ratings
   **   ~~~   ** Setpoint was never recovered and/or heater never turned on
   ** Warning ** Check input. Pump nominal power or motor efficiency is set to 0, for pump=MAINS PRESSURE
   ** Warning ** Output:Meter: invalid Key Name="ELECTRIC_RANGE:INTERIOREQUIPMENT:ELECTRICITY" - not found.
   ** Warning ** Output:Meter: invalid Key Name="ELECTRIC_DRYER:INTERIOREQUIPMENT:ELECTRICITY" - not found.
   ** Warning ** Output:Meter: invalid Key Name="HEATRECOVERY:ELECTRICITY" - not found.
   ** Warning ** Output:Meter: invalid Key Name="HEATING:NATURALGAS" - not found.
   ** Warning ** Output:Meter: invalid Key Name="WATERSYSTEMS:NATURALGAS" - not found.
   ** Warning ** Output:Meter: invalid Key Name="PROPANE:FACILITY" - not found.
   ** Warning ** Output:Meter: invalid Key Name="HEATING:PROPANE" - not found.
   ************* Testing Individual Branch Integrity
   ************* All Branches passed integrity testing
   ************* Testing Individual Supply Air Path Integrity
   ************* All Supply Air Paths passed integrity testing
   ************* Testing Individual Return Air Path Integrity
   ************* All Return Air Paths passed integrity testing
   ************* No node connection errors were found.
   ************* Beginning Simulation
   ** Warning ** AirflowNetwork::Solver::validate_distribution: Heat pump water heater is simulated along with an AirflowNetwork but is not included in the AirflowNetwork.
   ** Warning ** CalcEquipmentFlowRates: "TOTAL HOT WATER LOAD" - Target water temperature is greater than the hot water temperature by (1.67 C)
   **   ~~~   **  Environment=EXTREME_WINTER, at Simulation time=01/01 06:00 - 06:15
   **   ~~~   ** ...target water temperature     = 53.33 C
   **   ~~~   ** ...hot water temperature        = 51.66 C
   **   ~~~   ** ...Target water temperature should be less than or equal to the hot water temperature. Verify temperature setpoints and schedules.
   ** Warning ** SimHVAC: Maximum iterations (20) exceeded for all HVAC loops, at EXTREME_WINTER, 01/07 10:06 - 10:09
   **   ~~~   ** The solution for one or more of the Air Loop HVAC systems did not appear to converge
   **   ~~~   ** Air System Named = CENTRAL SYSTEM did not converge for mass flow rate
   **   ~~~   ** Check values should be zero. Most Recent values listed first.
   **   ~~~   ** Demand-to-Supply interface mass flow rate check value iteration history trace: 9.560907E-002,9.560907E-002,9.560907E-002,9.560907E-002,9.560907E-002,9.560907E-002,9.560907E-002,9.560907E-002,9.560907E-002,9.560907E-002,
   **   ~~~   ** Supply-to-demand interface deck 1 mass flow rate check value iteration history trace: 9.560907E-002,9.560907E-002,9.560907E-002,9.560907E-002,9.560907E-002,9.560907E-002,9.560907E-002,9.560907E-002,9.560907E-002,9.560907E-002,
   **   ~~~   ** Air System Named = CENTRAL SYSTEM did not converge for energy
   **   ~~~   ** Check values should be zero. Most Recent values listed first.
   **   ~~~   ** Demand-to-Supply interface energy check value iteration history trace: 1894.891548,1894.891548,1894.891548,1894.891548,1894.891548,1894.891548,1894.891547,1894.891547,1894.891547,1894.891547,
   **   ~~~   ** Supply-to-demand interface deck 1 energy check value iteration history trace: 3198.608405,3198.608404,3198.608404,3198.608404,3198.608404,3198.608404,3198.608404,3198.608404,3198.608403,3198.608403,
   ** Warning ** SimHVAC: Maximum iterations (20) exceeded for all HVAC loops, at ANNUAL, 01/08 20:15 - 20:30
   **   ~~~   ** The solution for one or more of the Air Loop HVAC systems did not appear to converge
   **   ~~~   ** Air System Named = CENTRAL SYSTEM did not converge for mass flow rate
   **   ~~~   ** Check values should be zero. Most Recent values listed first.
   **   ~~~   ** Demand-to-Supply interface mass flow rate check value iteration history trace: 9.149086E-002,9.149086E-002,9.149086E-002,9.149086E-002,9.149086E-002,9.149086E-002,9.149086E-002,9.149086E-002,9.149086E-002,9.149086E-002,
   **   ~~~   ** Supply-to-demand interface deck 1 mass flow rate check value iteration history trace: 9.149086E-002,9.149086E-002,9.149086E-002,9.149086E-002,9.149086E-002,9.149086E-002,9.149086E-002,9.149086E-002,9.149086E-002,9.149086E-002,
   **   ~~~   ** Air System Named = CENTRAL SYSTEM did not converge for energy
   **   ~~~   ** Check values should be zero. Most Recent values listed first.
   **   ~~~   ** Demand-to-Supply interface energy check value iteration history trace: 1796.318078,1796.318078,1796.318078,1796.318077,1796.318077,1796.318077,1796.318077,1796.318077,1796.318077,1796.318077,
   **   ~~~   ** Supply-to-demand interface deck 1 energy check value iteration history trace: 3002.985988,3002.985988,3002.985987,3002.985987,3002.985987,3002.985987,3002.985987,3002.985987,3002.985987,3002.985986,
   ** Warning ** SimHVAC: Maximum iterations (20) exceeded for all HVAC loops, at ANNUAL, 01/14 18:38 - 18:45
   **   ~~~   ** The solution for one or more of the Air Loop HVAC systems did not appear to converge
   **   ~~~   ** Air System Named = CENTRAL SYSTEM did not converge for mass flow rate
   **   ~~~   ** Check values should be zero. Most Recent values listed first.
   **   ~~~   ** Demand-to-Supply interface mass flow rate check value iteration history trace: 5.729719E-002,5.729719E-002,5.729719E-002,5.729719E-002,5.729719E-002,5.729719E-002,5.729719E-002,5.729719E-002,5.729719E-002,5.729719E-002,
   **   ~~~   ** Supply-to-demand interface deck 1 mass flow rate check value iteration history trace: 5.729719E-002,5.729719E-002,5.729719E-002,5.729719E-002,5.729719E-002,5.729719E-002,5.729719E-002,5.729719E-002,5.729719E-002,5.729719E-002,
   **   ~~~   ** Air System Named = CENTRAL SYSTEM did not converge for energy
   **   ~~~   ** Check values should be zero. Most Recent values listed first.
   **   ~~~   ** Demand-to-Supply interface energy check value iteration history trace: 1128.072243,1128.072243,1128.072243,1128.072243,1128.072243,1128.072243,1128.072243,1128.072243,1128.072243,1128.072243,
   **   ~~~   ** Supply-to-demand interface deck 1 energy check value iteration history trace: 1994.664780,1994.664780,1994.664780,1994.664780,1994.664780,1994.664780,1994.664780,1994.664780,1994.664780,1994.664780,
   ** Warning ** SimHVAC: Maximum iterations (20) exceeded for all HVAC loops, at ANNUAL, 01/15 09:15 - 09:30
   **   ~~~   ** The solution for one or more of the Air Loop HVAC systems did not appear to converge
   **   ~~~   ** Air System Named = CENTRAL SYSTEM did not converge for mass flow rate
   **   ~~~   ** Check values should be zero. Most Recent values listed first.
   **   ~~~   ** Demand-to-Supply interface mass flow rate check value iteration history trace: 7.175525E-002,7.175525E-002,7.175525E-002,7.175525E-002,7.175525E-002,7.175525E-002,7.175525E-002,7.175525E-002,7.175525E-002,7.175525E-002,
   **   ~~~   ** Supply-to-demand interface deck 1 mass flow rate check value iteration history trace: 7.175525E-002,7.175525E-002,7.175525E-002,7.175525E-002,7.175525E-002,7.175525E-002,7.175525E-002,7.175525E-002,7.175525E-002,7.175525E-002,
   **   ~~~   ** Air System Named = CENTRAL SYSTEM did not converge for energy
   **   ~~~   ** Check values should be zero. Most Recent values listed first.
   **   ~~~   ** Demand-to-Supply interface energy check value iteration history trace: 1421.496831,1421.496830,1421.496830,1421.496830,1421.496830,1421.496830,1421.496830,1421.496830,1421.496830,1421.496830,
   **   ~~~   ** Supply-to-demand interface deck 1 energy check value iteration history trace: 2476.156335,2476.156335,2476.156335,2476.156335,2476.156335,2476.156335,2476.156334,2476.156334,2476.156334,2476.156334,
   ** Warning ** SimHVAC: Maximum iterations (20) exceeded for all HVAC loops, at ANNUAL, 02/04 19:45 - 20:00
   **   ~~~   ** The solution for one or more of the Air Loop HVAC systems did not appear to converge
   **   ~~~   ** Air System Named = CENTRAL SYSTEM did not converge for mass flow rate
   **   ~~~   ** Check values should be zero. Most Recent values listed first.
   **   ~~~   ** Demand-to-Supply interface mass flow rate check value iteration history trace: 6.404566E-002,6.404566E-002,6.404566E-002,6.404566E-002,6.404566E-002,6.404566E-002,6.404566E-002,6.404566E-002,6.404566E-002,6.404566E-002,
   **   ~~~   ** Supply-to-demand interface deck 1 mass flow rate check value iteration history trace: 6.404566E-002,6.404566E-002,6.404566E-002,6.404566E-002,6.404566E-002,6.404566E-002,6.404566E-002,6.404566E-002,6.404566E-002,6.404566E-002,
   **   ~~~   ** Air System Named = CENTRAL SYSTEM did not converge for energy
   **   ~~~   ** Check values should be zero. Most Recent values listed first.
   **   ~~~   ** Demand-to-Supply interface energy check value iteration history trace: 1264.886323,1264.886323,1264.886323,1264.886323,1264.886323,1264.886323,1264.886323,1264.886323,1264.886323,1264.886322,
   **   ~~~   ** Supply-to-demand interface deck 1 energy check value iteration history trace: 2114.248350,2114.248350,2114.248350,2114.248350,2114.248349,2114.248349,2114.248349,2114.248349,2114.248349,2114.248349,
   ** Warning ** SimHVAC: Maximum iterations (20) exceeded for all HVAC loops, at ANNUAL, 04/11 07:15 - 07:18
   **   ~~~   ** The solution for one or more of the Air Loop HVAC systems did not appear to converge
   **   ~~~   ** Air System Named = CENTRAL SYSTEM did not converge for mass flow rate
   **   ~~~   ** Check values should be zero. Most Recent values listed first.
   **   ~~~   ** Demand-to-Supply interface mass flow rate check value iteration history trace: 7.270176E-002,7.270176E-002,7.270176E-002,7.270176E-002,7.270176E-002,7.270176E-002,7.270176E-002,7.270176E-002,7.270176E-002,7.270176E-002,
   **   ~~~   ** Supply-to-demand interface deck 1 mass flow rate check value iteration history trace: 7.270176E-002,7.270176E-002,7.270176E-002,7.270176E-002,7.270176E-002,7.270176E-002,7.270176E-002,7.270176E-002,7.270176E-002,7.270176E-002,
   **   ~~~   ** Air System Named = CENTRAL SYSTEM did not converge for energy
   **   ~~~   ** Check values should be zero. Most Recent values listed first.
   **   ~~~   ** Demand-to-Supply interface energy check value iteration history trace: 1437.851036,1437.851036,1437.851036,1437.851036,1437.851036,1437.851036,1437.851036,1437.851036,1437.851036,1437.851035,
   **   ~~~   ** Supply-to-demand interface deck 1 energy check value iteration history trace: 2444.453545,2444.453545,2444.453545,2444.453544,2444.453544,2444.453544,2444.453544,2444.453544,2444.453544,2444.453544,
   ** Warning ** SimHVAC: Maximum iterations (20) exceeded for all HVAC loops, at ANNUAL, 04/12 06:45 - 07:00
   **   ~~~   ** The solution for one or more of the Air Loop HVAC systems did not appear to converge
   **   ~~~   ** Air System Named = CENTRAL SYSTEM did not converge for mass flow rate
   **   ~~~   ** Check values should be zero. Most Recent values listed first.
   **   ~~~   ** Demand-to-Supply interface mass flow rate check value iteration history trace: 7.686890E-002,7.686890E-002,7.686890E-002,7.686890E-002,7.686890E-002,7.686890E-002,7.686890E-002,7.686890E-002,7.686890E-002,7.686890E-002,
   **   ~~~   ** Supply-to-demand interface deck 1 mass flow rate check value iteration history trace: 7.686890E-002,7.686890E-002,7.686890E-002,7.686890E-002,7.686890E-002,7.686890E-002,7.686890E-002,7.686890E-002,7.686890E-002,7.686890E-002,
   **   ~~~   ** Air System Named = CENTRAL SYSTEM did not converge for energy
   **   ~~~   ** Check values should be zero. Most Recent values listed first.
   **   ~~~   ** Demand-to-Supply interface energy check value iteration history trace: 1524.684615,1524.684615,1524.684615,1524.684615,1524.684615,1524.684615,1524.684615,1524.684615,1524.684614,1524.684614,
   **   ~~~   ** Supply-to-demand interface deck 1 energy check value iteration history trace: 2582.700565,2582.700565,2582.700565,2582.700565,2582.700564,2582.700564,2582.700564,2582.700564,2582.700564,2582.700564,
   ** Warning ** SimHVAC: Maximum iterations (20) exceeded for all HVAC loops, at ANNUAL, 04/15 09:15 - 09:30
   **   ~~~   ** The solution for one or more of the Air Loop HVAC systems did not appear to converge
   **   ~~~   ** Air System Named = CENTRAL SYSTEM did not converge for mass flow rate
   **   ~~~   ** Check values should be zero. Most Recent values listed first.
   **   ~~~   ** Demand-to-Supply interface mass flow rate check value iteration history trace: 7.674973E-002,7.674973E-002,7.674973E-002,7.674973E-002,7.674973E-002,7.674973E-002,7.674973E-002,7.674973E-002,7.674973E-002,7.674973E-002,
   **   ~~~   ** Supply-to-demand interface deck 1 mass flow rate check value iteration history trace: 7.674973E-002,7.674973E-002,7.674973E-002,7.674973E-002,7.674973E-002,7.674973E-002,7.674973E-002,7.674973E-002,7.674973E-002,7.674973E-002,
   **   ~~~   ** Air System Named = CENTRAL SYSTEM did not converge for energy
   **   ~~~   ** Check values should be zero. Most Recent values listed first.
   **   ~~~   ** Demand-to-Supply interface energy check value iteration history trace: 1516.407269,1516.407269,1516.407269,1516.407269,1516.407269,1516.407269,1516.407269,1516.407269,1516.407269,1516.407269,
   **   ~~~   ** Supply-to-demand interface deck 1 energy check value iteration history trace: 2668.868912,2668.868912,2668.868911,2668.868911,2668.868911,2668.868911,2668.868911,2668.868911,2668.868911,2668.868911,
   ** Warning ** SimHVAC: Maximum iterations (20) exceeded for all HVAC loops, at ANNUAL, 05/02 07:30 - 07:45
   **   ~~~   ** The solution for one or more of the Air Loop HVAC systems did not appear to converge
   **   ~~~   ** Air System Named = CENTRAL SYSTEM did not converge for mass flow rate
   **   ~~~   ** Check values should be zero. Most Recent values listed first.
   **   ~~~   ** Demand-to-Supply interface mass flow rate check value iteration history trace: 7.372339E-002,7.372339E-002,7.372339E-002,7.372339E-002,7.372339E-002,7.372339E-002,7.372339E-002,7.372339E-002,7.372339E-002,7.372339E-002,
   **   ~~~   ** Supply-to-demand interface deck 1 mass flow rate check value iteration history trace: 7.372339E-002,7.372339E-002,7.372339E-002,7.372339E-002,7.372339E-002,7.372339E-002,7.372339E-002,7.372339E-002,7.372339E-002,7.372339E-002,
   **   ~~~   ** Air System Named = CENTRAL SYSTEM did not converge for energy
   **   ~~~   ** Check values should be zero. Most Recent values listed first.
   **   ~~~   ** Demand-to-Supply interface energy check value iteration history trace: 1438.601859,1438.601859,1438.601859,1438.601859,1438.601859,1438.601858,1438.601858,1438.601858,1438.601858,1438.601858,
   **   ~~~   ** Supply-to-demand interface deck 1 energy check value iteration history trace: 2534.704243,2534.704243,2534.704243,2534.704243,2534.704243,2534.704243,2534.704243,2534.704243,2534.704243,2534.704242,
   ** Warning ** SimHVAC: Maximum iterations (20) exceeded for all HVAC loops, at ANNUAL, 09/11 07:23 - 07:30
   **   ~~~   ** The solution for one or more of the Air Loop HVAC systems did not appear to converge
   **   ~~~   ** Air System Named = CENTRAL SYSTEM did not converge for mass flow rate
   **   ~~~   ** Check values should be zero. Most Recent values listed first.
   **   ~~~   ** Demand-to-Supply interface mass flow rate check value iteration history trace: 6.424469E-002,6.424469E-002,6.424469E-002,6.424469E-002,6.424469E-002,6.424469E-002,6.424469E-002,6.424469E-002,6.424469E-002,6.424469E-002,
   **   ~~~   ** Supply-to-demand interface deck 1 mass flow rate check value iteration history trace: 6.424469E-002,6.424469E-002,6.424469E-002,6.424469E-002,6.424469E-002,6.424469E-002,6.424469E-002,6.424469E-002,6.424469E-002,6.424469E-002,
   **   ~~~   ** Air System Named = CENTRAL SYSTEM did not converge for energy
   **   ~~~   ** Check values should be zero. Most Recent values listed first.
   **   ~~~   ** Demand-to-Supply interface energy check value iteration history trace: 1262.578345,1262.578345,1262.578345,1262.578345,1262.578345,1262.578345,1262.578345,1262.578345,1262.578345,1262.578345,
   **   ~~~   ** Supply-to-demand interface deck 1 energy check value iteration history trace: 2187.019632,2187.019632,2187.019632,2187.019632,2187.019631,2187.019631,2187.019631,2187.019631,2187.019631,2187.019631,
   ** Warning ** SimHVAC: Maximum iterations (20) exceeded for all HVAC loops, at ANNUAL, 11/01 06:45 - 07:00
   **   ~~~   ** The solution for one or more of the Air Loop HVAC systems did not appear to converge
   **   ~~~   ** Air System Named = CENTRAL SYSTEM did not converge for mass flow rate
   **   ~~~   ** Check values should be zero. Most Recent values listed first.
   **   ~~~   ** Demand-to-Supply interface mass flow rate check value iteration history trace: 5.555306E-002,5.555306E-002,5.555306E-002,5.555306E-002,5.555306E-002,5.555306E-002,5.555306E-002,5.555306E-002,5.555306E-002,5.555306E-002,
   **   ~~~   ** Supply-to-demand interface deck 1 mass flow rate check value iteration history trace: 5.555306E-002,5.555306E-002,5.555306E-002,5.555306E-002,5.555306E-002,5.555306E-002,5.555306E-002,5.555306E-002,5.555306E-002,5.555306E-002,
   **   ~~~   ** Air System Named = CENTRAL SYSTEM did not converge for energy
   **   ~~~   ** Check values should be zero. Most Recent values listed first.
   **   ~~~   ** Demand-to-Supply interface energy check value iteration history trace: 1100.747811,1100.747811,1100.747811,1100.747811,1100.747811,1100.747811,1100.747810,1100.747810,1100.747810,1100.747810,
   **   ~~~   ** Supply-to-demand interface deck 1 energy check value iteration history trace: 1989.751953,1989.751953,1989.751953,1989.751953,1989.751952,1989.751952,1989.751952,1989.751952,1989.751952,1989.751952,
   ** Warning ** SimHVAC: Maximum iterations (20) exceeded for all HVAC loops, at ANNUAL, 11/01 06:53 - 07:00
   **   ~~~   ** The solution for one or more of the Air Loop HVAC systems did not appear to converge
   **   ~~~   ** Air System Named = CENTRAL SYSTEM did not converge for mass flow rate
   **   ~~~   ** Check values should be zero. Most Recent values listed first.
   **   ~~~   ** Demand-to-Supply interface mass flow rate check value iteration history trace: 5.703525E-002,5.703525E-002,5.703525E-002,5.703525E-002,5.703525E-002,5.703525E-002,5.703525E-002,5.703525E-002,5.703525E-002,5.703525E-002,
   **   ~~~   ** Supply-to-demand interface deck 1 mass flow rate check value iteration history trace: 5.703525E-002,5.703525E-002,5.703525E-002,5.703525E-002,5.703525E-002,5.703525E-002,5.703525E-002,5.703525E-002,5.703525E-002,5.703525E-002,
   **   ~~~   ** Air System Named = CENTRAL SYSTEM did not converge for energy
   **   ~~~   ** Check values should be zero. Most Recent values listed first.
   **   ~~~   ** Demand-to-Supply interface energy check value iteration history trace: 1130.484598,1130.484598,1130.484597,1130.484597,1130.484597,1130.484597,1130.484597,1130.484597,1130.484597,1130.484597,
   **   ~~~   ** Supply-to-demand interface deck 1 energy check value iteration history trace: 2043.304762,2043.304761,2043.304761,2043.304761,2043.304761,2043.304761,2043.304761,2043.304761,2043.304761,2043.304761,
   ** Warning ** SimHVAC: Maximum iterations (20) exceeded for all HVAC loops, at ANNUAL, 11/25 10:15 - 10:30
   **   ~~~   ** The solution for one or more of the Air Loop HVAC systems did not appear to converge
   **   ~~~   ** Air System Named = CENTRAL SYSTEM did not converge for mass flow rate
   **   ~~~   ** Check values should be zero. Most Recent values listed first.
   **   ~~~   ** Demand-to-Supply interface mass flow rate check value iteration history trace: 8.279909E-002,8.279909E-002,8.279909E-002,8.279909E-002,8.279909E-002,8.279909E-002,8.279909E-002,8.279909E-002,8.279909E-002,8.279909E-002,
   **   ~~~   ** Supply-to-demand interface deck 1 mass flow rate check value iteration history trace: 8.279909E-002,8.279909E-002,8.279909E-002,8.279909E-002,8.279909E-002,8.279909E-002,8.279909E-002,8.279909E-002,8.279909E-002,8.279909E-002,
   **   ~~~   ** Air System Named = CENTRAL SYSTEM did not converge for energy
   **   ~~~   ** Check values should be zero. Most Recent values listed first.
   **   ~~~   ** Demand-to-Supply interface energy check value iteration history trace: 1640.604784,1640.604784,1640.604784,1640.604784,1640.604784,1640.604784,1640.604784,1640.604784,1640.604784,1640.604784,
   **   ~~~   ** Supply-to-demand interface deck 1 energy check value iteration history trace: 2777.708576,2777.708576,2777.708576,2777.708576,2777.708576,2777.708575,2777.708575,2777.708575,2777.708575,2777.708575,
   ** Warning ** SimHVAC: Maximum iterations (20) exceeded for all HVAC loops, at ANNUAL, 11/26 09:33 - 09:36
   **   ~~~   ** The solution for one or more of the Air Loop HVAC systems did not appear to converge
   **   ~~~   ** Air System Named = CENTRAL SYSTEM did not converge for mass flow rate
   **   ~~~   ** Check values should be zero. Most Recent values listed first.
   **   ~~~   ** Demand-to-Supply interface mass flow rate check value iteration history trace: 8.991367E-002,8.991367E-002,8.991367E-002,8.991367E-002,8.991367E-002,8.991367E-002,8.991367E-002,8.991367E-002,8.991367E-002,8.991367E-002,
   **   ~~~   ** Supply-to-demand interface deck 1 mass flow rate check value iteration history trace: 8.991367E-002,8.991367E-002,8.991367E-002,8.991367E-002,8.991367E-002,8.991367E-002,8.991367E-002,8.991367E-002,8.991367E-002,8.991367E-002,
   **   ~~~   ** Air System Named = CENTRAL SYSTEM did not converge for energy
   **   ~~~   ** Check values should be zero. Most Recent values listed first.
   **   ~~~   ** Demand-to-Supply interface energy check value iteration history trace: 1777.112964,1777.112964,1777.112964,1777.112964,1777.112964,1777.112964,1777.112963,1777.112963,1777.112963,1777.112963,
   **   ~~~   ** Supply-to-demand interface deck 1 energy check value iteration history trace: 3050.867677,3050.867677,3050.867677,3050.867677,3050.867676,3050.867676,3050.867676,3050.867676,3050.867676,3050.867676,
   ************* Simulation Error Summary *************
   ** Warning ** The following Report Variables were requested but not generated -- check.rdd file
   **   ~~~   ** Either the IDF did not contain these elements, the variable name is misspelled,
   **   ~~~   ** or the requested variable is an advanced output which requires Output : Diagnostics, DisplayAdvancedReportVariables;
   ************* Key=*, VarName=BASEBOARD TOTAL HEATING ENERGY, Frequency=
   ************* Key=*, VarName=WATER HEATER NATURALGAS ENERGY, Frequency=
   ************* Key=*, VarName=COOLING COIL TOTAL HEATING ENERGY, Frequency=
   ************* There are 34 unused schedules in input.
   ************* There are 388 unused week schedules in input.
   ************* There are 396 unused day schedules in input.
   ************* Use Output:Diagnostics,DisplayUnusedSchedules; to see them.
   *************
   ************* ===== Recurring Error Summary =====
   ************* The following recurring error messages occurred.
   *************
   *************  ** Warning ** "TOTAL HOT WATER LOAD" - Target water temperature should be less than or equal to the hot water temperature error continues...
   *************  **   ~~~   **   This error occurred 92739 total times;
   *************  **   ~~~   **   during Warmup 0 times;
   *************  **   ~~~   **   during Sizing 0 times.
   *************  **   ~~~   **   Max=8.645446  Min=2.452260E-004
   *************
   *************  ** Warning ** SimHVAC: Exceeding Maximum iterations for all HVAC loops, during ANNUAL continues
   *************  **   ~~~   **   This error occurred 2 total times;
   *************  **   ~~~   **   during Warmup 0 times;
   *************  **   ~~~   **   during Sizing 0 times.
   *************
   *************
   ************* ===== Final Error Summary =====
   ************* The following error categories occurred.  Consider correcting or noting.
   ************* Nominally Unused Constructions
   ************* ..The nominally unused constructions warning is provided to alert you to potential conditions that can cause
   ************* ..extra time during simulation. Each construction is calculated by the algorithm indicated in the HeatBalanceAlgorithm
   ************* ..object. You may remove the constructions indicated (when you use the DisplayExtraWarnings option).
   *************
   ************* EnergyPlus Warmup Error Summary. During Warmup: 1 Warning; 0 Severe Errors.
   ************* EnergyPlus Sizing Error Summary. During Sizing: 4 Warning; 0 Severe Errors.
   ************* EnergyPlus Completed Successfully-- 92773 Warning; 0 Severe Errors; Elapsed Time=00hr 03min 48.85sec
