Program Version,EnergyPlus, Version 22.2.0-c249759bad, YMD=2023.09.01 18:49,
   ************* Beginning Zone Sizing Calculations
   ** Warning ** ProcessScheduleInput: Schedule:Constant="ALWAYS ON DISCRETE", Schedule Type Limits Name="ONOFF" not found -- will not be validated
   ** Warning ** Foundation:Kiva="KIVA FOUNDATION", no Interior Horizontal Insulation Material Name defined
   **   ~~~   ** Interior Horizontal Insulation Depth will not be used.
   ** Warning ** CheckUsedConstructions: There are 15 nominally unused constructions in input.
   **   ~~~   ** Each Unused construction is shown.
   ************* Construction=INTERIOR FLOOR
   ************* Construction=INTERIOR WINDOW
   ************* Construction=EXTERIOR DOOR
   ************* Construction=INTERIOR DOOR
   ************* Construction=GABLE CONSTRUCTION
   ************* Construction=CRAWL_FLOOR
   ************* Construction=INSULATED PIPE
   ************* Construction=PLAIN PIPE
   ************* Construction=TDD PIPE
   ************* Construction=TDD DOME
   ************* Construction=TDD DIFFUSER
   ************* Construction=CRAWL WALL
   ************* Construction=CEILING-FLOOR-LAYER
   ************* Construction=SLAB CONSTRUCTION W FULL R10 INSULATION
   ************* Construction=SLAB CONSTRUCTION W FULL R5 INSULATION
   ** Warning ** GetDXCoils: Coil:Heating:DX:SingleSpeed="DX_HEATING_COIL" curve values
   **   ~~~   ** ... Defrost Energy Input Ratio Function of Temperature Curve Name = DEFROSTEIR output is not equal to 1.0 (+ or - 10%) at rated conditions.
   **   ~~~   ** ... Curve output at rated conditions = 0.152
   ************* Beginning System Sizing Calculations
   ************* Beginning Plant Sizing Calculations
   ** Warning ** SizeDXCoil Coil:Cooling:DX:SingleSpeed DX_COOLING_COIL
   **   ~~~   ** ...Gross Rated Total Cooling Capacity [W] will be limited by the maximum rated volume flow per rated total capacity ratio.
   **   ~~~   ** ...DX coil volume flow rate ( m3/s ) = 0.538415
   **   ~~~   ** ...Requested capacity ( W ) = 7651.830
   **   ~~~   ** ...Requested flow/capacity ratio ( m3/s/W ) = 7.036E-005
   **   ~~~   ** ...Maximum flow/capacity ratio ( m3/s/W ) = 6.041E-005
   **   ~~~   ** ...Adjusted capacity ( W ) = 8912.688
   ** Warning ** Coil:WaterHeating:AirToWaterHeatPump:Wrapped "HEAT PUMP WATER HEATER EVAPORATOR": Rated air volume flow rate per watt of rated total water heating capacity is out of range
   **   ~~~   ** Min Rated Vol Flow Per Watt=[4.027E-005], Rated Vol Flow Per Watt=[1.510E-004], Max Rated Vol Flow Per Watt=[8.056E-005]. See Input-Output Reference Manual for valid range.
   ************* SizeFan: : Potential issue with equipment sizing for Fan:OnOff HEAT PUMP WATER HEATER FAN
   **   ~~~   ** User-Specified Maximum Flow Rate [m3/s] = 0.22653
   **   ~~~   ** differs from Design Size Maximum Flow Rate [m3/s] = 7.55250E-002
   **   ~~~   ** This may, or may not, indicate mismatched component sizes.
   **   ~~~   ** Verify that the value entered is intended and is consistent with other components.
   ** Warning ** Water heater = WATER HEATER TANK:  Recovery Efficiency and Energy Factor could not be calculated during the test for standard ratings
   **   ~~~   ** Setpoint was never recovered and/or heater never turned on
   ** Warning ** Check input. Pump nominal power or motor efficiency is set to 0, for pump=MAINS PRESSURE
   ** Warning ** Output:Meter: invalid Key Name="ELECTRIC_RANGE:INTERIOREQUIPMENT:ELECTRICITY" - not found.
   ** Warning ** Output:Meter: invalid Key Name="ELECTRIC_DRYER:INTERIOREQUIPMENT:ELECTRICITY" - not found.
   ** Warning ** Output:Meter: invalid Key Name="HEATRECOVERY:ELECTRICITY" - not found.
   ** Warning ** Output:Meter: invalid Key Name="HEATING:NATURALGAS" - not found.
   ** Warning ** Output:Meter: invalid Key Name="WATERSYSTEMS:NATURALGAS" - not found.
   ** Warning ** Output:Meter: invalid Key Name="PROPANE:FACILITY" - not found.
   ** Warning ** Output:Meter: invalid Key Name="HEATING:PROPANE" - not found.
   ************* Testing Individual Branch Integrity
   ************* All Branches passed integrity testing
   ************* Testing Individual Supply Air Path Integrity
   ************* All Supply Air Paths passed integrity testing
   ************* Testing Individual Return Air Path Integrity
   ************* All Return Air Paths passed integrity testing
   ************* No node connection errors were found.
   ************* Beginning Simulation
   ** Warning ** AirflowNetwork::Solver::validate_distribution: Heat pump water heater is simulated along with an AirflowNetwork but is not included in the AirflowNetwork.
   ** Warning ** CalcEquipmentFlowRates: "TOTAL HOT WATER LOAD" - Target water temperature is greater than the hot water temperature by (0.88 C)
   **   ~~~   **  Environment=EXTREME_WINTER, at Simulation time=12/22 03:45 - 04:00
   **   ~~~   ** ...target water temperature     = 53.33 C
   **   ~~~   ** ...hot water temperature        = 52.45 C
   **   ~~~   ** ...Target water temperature should be less than or equal to the hot water temperature. Verify temperature setpoints and schedules.
   ** Warning ** SimHVAC: Maximum iterations (20) exceeded for all HVAC loops, at EXTREME_SUMMER, 07/05 03:45 - 04:00
   **   ~~~   ** The solution for one or more of the Air Loop HVAC systems did not appear to converge
   **   ~~~   ** Air System Named = CENTRAL SYSTEM did not converge for mass flow rate
   **   ~~~   ** Check values should be zero. Most Recent values listed first.
   **   ~~~   ** Demand-to-Supply interface mass flow rate check value iteration history trace: 8.088165E-002,8.088165E-002,8.088165E-002,8.088165E-002,8.088165E-002,8.088165E-002,8.088165E-002,8.088165E-002,8.088165E-002,8.088165E-002,
   **   ~~~   ** Supply-to-demand interface deck 1 mass flow rate check value iteration history trace: 8.088165E-002,8.088165E-002,8.088165E-002,8.088165E-002,8.088165E-002,8.088165E-002,8.088165E-002,8.088165E-002,8.088165E-002,8.088165E-002,
   **   ~~~   ** Air System Named = CENTRAL SYSTEM did not converge for energy
   **   ~~~   ** Check values should be zero. Most Recent values listed first.
   **   ~~~   ** Demand-to-Supply interface energy check value iteration history trace: 2034.648363,2034.648363,2034.648364,2034.648364,2034.648365,2034.648365,2034.648366,2034.648366,2034.648367,2034.648367,
   **   ~~~   ** Supply-to-demand interface deck 1 energy check value iteration history trace: 830.857099,830.857100,830.857100,830.857100,830.857100,830.857100,830.857101,830.857101,830.857101,830.857101,
   ** Warning ** SimHVAC: Maximum iterations (20) exceeded for all HVAC loops, at ANNUAL, 01/05 13:15 - 13:30
   **   ~~~   ** The solution for one or more of the Air Loop HVAC systems did not appear to converge
   **   ~~~   ** Air System Named = CENTRAL SYSTEM did not converge for mass flow rate
   **   ~~~   ** Check values should be zero. Most Recent values listed first.
   **   ~~~   ** Demand-to-Supply interface mass flow rate check value iteration history trace: 4.571256E-002,4.571256E-002,4.571256E-002,4.571256E-002,4.571256E-002,4.571256E-002,4.571256E-002,4.571256E-002,4.571256E-002,4.571256E-002,
   **   ~~~   ** Supply-to-demand interface deck 1 mass flow rate check value iteration history trace: 4.571256E-002,4.571256E-002,4.571256E-002,4.571256E-002,4.571256E-002,4.571256E-002,4.571256E-002,4.571256E-002,4.571256E-002,4.571256E-002,
   **   ~~~   ** Air System Named = CENTRAL SYSTEM did not converge for energy
   **   ~~~   ** Check values should be zero. Most Recent values listed first.
   **   ~~~   ** Demand-to-Supply interface energy check value iteration history trace: 904.535070,904.535070,904.535070,904.535070,904.535070,904.535070,904.535070,904.535070,904.535070,904.535070,
   **   ~~~   ** Supply-to-demand interface deck 1 energy check value iteration history trace: 1594.753759,1594.753759,1594.753759,1594.753758,1594.753758,1594.753758,1594.753758,1594.753758,1594.753758,1594.753758,
   ** Warning ** SimHVAC: Maximum iterations (20) exceeded for all HVAC loops, at ANNUAL, 01/06 13:30 - 13:45
   **   ~~~   ** The solution for one or more of the Air Loop HVAC systems did not appear to converge
   **   ~~~   ** Air System Named = CENTRAL SYSTEM did not converge for mass flow rate
   **   ~~~   ** Check values should be zero. Most Recent values listed first.
   **   ~~~   ** Demand-to-Supply interface mass flow rate check value iteration history trace: 4.816868E-002,4.816868E-002,4.816868E-002,4.816868E-002,4.816868E-002,4.816868E-002,4.816868E-002,4.816868E-002,4.816868E-002,4.816868E-002,
   **   ~~~   ** Supply-to-demand interface deck 1 mass flow rate check value iteration history trace: 4.816868E-002,4.816868E-002,4.816868E-002,4.816868E-002,4.816868E-002,4.816868E-002,4.816868E-002,4.816868E-002,4.816868E-002,4.816868E-002,
   **   ~~~   ** Air System Named = CENTRAL SYSTEM did not converge for energy
   **   ~~~   ** Check values should be zero. Most Recent values listed first.
   **   ~~~   ** Demand-to-Supply interface energy check value iteration history trace: 954.561354,954.561354,954.561354,954.561354,954.561354,954.561354,954.561354,954.561354,954.561354,954.561354,
   **   ~~~   ** Supply-to-demand interface deck 1 energy check value iteration history trace: 1678.161438,1678.161438,1678.161437,1678.161437,1678.161437,1678.161437,1678.161437,1678.161437,1678.161437,1678.161437,
   ** Warning ** SimHVAC: Maximum iterations (20) exceeded for all HVAC loops, at ANNUAL, 02/01 09:45 - 10:00
   **   ~~~   ** The solution for one or more of the Air Loop HVAC systems did not appear to converge
   **   ~~~   ** Air System Named = CENTRAL SYSTEM did not converge for mass flow rate
   **   ~~~   ** Check values should be zero. Most Recent values listed first.
   **   ~~~   ** Demand-to-Supply interface mass flow rate check value iteration history trace: 5.828297E-002,5.828297E-002,5.828297E-002,5.828297E-002,5.828297E-002,5.828297E-002,5.828297E-002,5.828297E-002,5.828297E-002,5.828297E-002,
   **   ~~~   ** Supply-to-demand interface deck 1 mass flow rate check value iteration history trace: 5.828297E-002,5.828297E-002,5.828297E-002,5.828297E-002,5.828297E-002,5.828297E-002,5.828297E-002,5.828297E-002,5.828297E-002,5.828297E-002,
   **   ~~~   ** Air System Named = CENTRAL SYSTEM did not converge for energy
   **   ~~~   ** Check values should be zero. Most Recent values listed first.
   **   ~~~   ** Demand-to-Supply interface energy check value iteration history trace: 1154.978332,1154.978332,1154.978332,1154.978332,1154.978332,1154.978332,1154.978332,1154.978332,1154.978332,1154.978332,
   **   ~~~   ** Supply-to-demand interface deck 1 energy check value iteration history trace: 2029.058370,2029.058370,2029.058369,2029.058369,2029.058369,2029.058369,2029.058369,2029.058369,2029.058369,2029.058369,
   ** Warning ** SimHVAC: Maximum iterations (20) exceeded for all HVAC loops, at ANNUAL, 02/09 02:55 - 03:00
   **   ~~~   ** The solution for one or more of the Air Loop HVAC systems did not appear to converge
   **   ~~~   ** Air System Named = CENTRAL SYSTEM did not converge for mass flow rate
   **   ~~~   ** Check values should be zero. Most Recent values listed first.
   **   ~~~   ** Demand-to-Supply interface mass flow rate check value iteration history trace: 4.415308E-002,4.415308E-002,4.415308E-002,4.415308E-002,4.415308E-002,4.415308E-002,4.415308E-002,4.415308E-002,4.415308E-002,4.415308E-002,
   **   ~~~   ** Supply-to-demand interface deck 1 mass flow rate check value iteration history trace: 4.415308E-002,4.415308E-002,4.415308E-002,4.415308E-002,4.415308E-002,4.415308E-002,4.415308E-002,4.415308E-002,4.415308E-002,4.415308E-002,
   **   ~~~   ** Air System Named = CENTRAL SYSTEM did not converge for energy
   **   ~~~   ** Check values should be zero. Most Recent values listed first.
   **   ~~~   ** Demand-to-Supply interface energy check value iteration history trace: 833.447373,833.447373,833.447373,833.447373,833.447373,833.447373,833.447373,833.447373,833.447373,833.447373,
   **   ~~~   ** Supply-to-demand interface deck 1 energy check value iteration history trace: 1529.357604,1529.357604,1529.357604,1529.357604,1529.357604,1529.357604,1529.357604,1529.357604,1529.357604,1529.357604,
   ** Warning ** SimHVAC: Maximum iterations (20) exceeded for all HVAC loops, at ANNUAL, 02/25 09:30 - 09:45
   **   ~~~   ** The solution for one or more of the Air Loop HVAC systems did not appear to converge
   **   ~~~   ** Air System Named = CENTRAL SYSTEM did not converge for mass flow rate
   **   ~~~   ** Check values should be zero. Most Recent values listed first.
   **   ~~~   ** Demand-to-Supply interface mass flow rate check value iteration history trace: 5.285280E-002,5.285280E-002,5.285280E-002,5.285280E-002,5.285280E-002,5.285280E-002,5.285280E-002,5.285280E-002,5.285280E-002,5.285280E-002,
   **   ~~~   ** Supply-to-demand interface deck 1 mass flow rate check value iteration history trace: 5.285280E-002,5.285280E-002,5.285280E-002,5.285280E-002,5.285280E-002,5.285280E-002,5.285280E-002,5.285280E-002,5.285280E-002,5.285280E-002,
   **   ~~~   ** Air System Named = CENTRAL SYSTEM did not converge for energy
   **   ~~~   ** Check values should be zero. Most Recent values listed first.
   **   ~~~   ** Demand-to-Supply interface energy check value iteration history trace: 1047.379304,1047.379304,1047.379304,1047.379304,1047.379304,1047.379304,1047.379304,1047.379304,1047.379304,1047.379304,
   **   ~~~   ** Supply-to-demand interface deck 1 energy check value iteration history trace: 1938.786782,1938.786781,1938.786781,1938.786781,1938.786781,1938.786781,1938.786781,1938.786781,1938.786781,1938.786781,
   ** Warning ** Temperature out of range [-100. to 200.] (PsyPsatFnTemp)
   **   ~~~   **  Routine=PsyTwbFnTdbWPb, Environment=ANNUAL, at Simulation time=03/05 07:15 - 07:22
   **   ~~~   **  Input Temperature=-154.34
   ** Warning ** SimHVAC: Maximum iterations (20) exceeded for all HVAC loops, at ANNUAL, 03/06 08:55 - 08:57
   **   ~~~   ** The solution for one or more of the Air Loop HVAC systems did not appear to converge
   **   ~~~   ** Air System Named = CENTRAL SYSTEM did not converge for mass flow rate
   **   ~~~   ** Check values should be zero. Most Recent values listed first.
   **   ~~~   ** Demand-to-Supply interface mass flow rate check value iteration history trace: 4.123029E-002,4.123029E-002,4.123029E-002,4.123029E-002,4.123029E-002,4.123029E-002,4.123029E-002,4.123029E-002,4.123029E-002,4.123029E-002,
   **   ~~~   ** Supply-to-demand interface deck 1 mass flow rate check value iteration history trace: 4.123029E-002,4.123029E-002,4.123029E-002,4.123029E-002,4.123029E-002,4.123029E-002,4.123029E-002,4.123029E-002,4.123029E-002,4.123029E-002,
   **   ~~~   ** Air System Named = CENTRAL SYSTEM did not converge for energy
   **   ~~~   ** Check values should be zero. Most Recent values listed first.
   **   ~~~   ** Demand-to-Supply interface energy check value iteration history trace: 817.058379,817.058379,817.058379,817.058379,817.058379,817.058379,817.058379,817.058379,817.058379,817.058379,
   **   ~~~   ** Supply-to-demand interface deck 1 energy check value iteration history trace: 1562.901361,1562.901361,1562.901361,1562.901361,1562.901361,1562.901361,1562.901361,1562.901361,1562.901361,1562.901361,
   ** Warning ** SimHVAC: Maximum iterations (20) exceeded for all HVAC loops, at ANNUAL, 03/22 10:08 - 10:11
   **   ~~~   ** The solution for one or more of the Air Loop HVAC systems did not appear to converge
   **   ~~~   ** Air System Named = CENTRAL SYSTEM did not converge for mass flow rate
   **   ~~~   ** Check values should be zero. Most Recent values listed first.
   **   ~~~   ** Demand-to-Supply interface mass flow rate check value iteration history trace: 5.258172E-002,5.258172E-002,5.258172E-002,5.258172E-002,5.258172E-002,5.258172E-002,5.258172E-002,5.258172E-002,5.258172E-002,5.258172E-002,
   **   ~~~   ** Supply-to-demand interface deck 1 mass flow rate check value iteration history trace: 5.258172E-002,5.258172E-002,5.258172E-002,5.258172E-002,5.258172E-002,5.258172E-002,5.258172E-002,5.258172E-002,5.258172E-002,5.258172E-002,
   **   ~~~   ** Air System Named = CENTRAL SYSTEM did not converge for energy
   **   ~~~   ** Check values should be zero. Most Recent values listed first.
   **   ~~~   ** Demand-to-Supply interface energy check value iteration history trace: 1035.159862,1035.159862,1035.159862,1035.159862,1035.159862,1035.159862,1035.159862,1035.159862,1035.159862,1035.159862,
   **   ~~~   ** Supply-to-demand interface deck 1 energy check value iteration history trace: 1857.809971,1857.809971,1857.809971,1857.809970,1857.809970,1857.809970,1857.809970,1857.809970,1857.809970,1857.809970,
   ** Warning ** WetBulb not converged after 101 iterations(PsyTwbFnTdbWPb)
   **   ~~~   **  Routine=Unknown, Environment=ANNUAL, at Simulation time=04/30 13:25 - 13:30
   **   ~~~   **  Input Temperature = 7.05
   **   ~~~   **  Input Humidity Ratio= 1.416677E-003
   **   ~~~   **  Input Pressure = 89772.50
   **   ~~~   **  Resultant Temperature= 0.18
   ** Warning ** SimHVAC: Maximum iterations (20) exceeded for all HVAC loops, at ANNUAL, 04/30 21:15 - 21:30
   **   ~~~   ** The solution for one or more of the Air Loop HVAC systems did not appear to converge
   **   ~~~   ** Air System Named = CENTRAL SYSTEM did not converge for mass flow rate
   **   ~~~   ** Check values should be zero. Most Recent values listed first.
   **   ~~~   ** Demand-to-Supply interface mass flow rate check value iteration history trace: 4.771858E-002,4.771858E-002,4.771858E-002,4.771858E-002,4.771858E-002,4.771858E-002,4.771858E-002,4.771858E-002,4.771858E-002,4.771858E-002,
   **   ~~~   ** Supply-to-demand interface deck 1 mass flow rate check value iteration history trace: 4.771858E-002,4.771858E-002,4.771858E-002,4.771858E-002,4.771858E-002,4.771858E-002,4.771858E-002,4.771858E-002,4.771858E-002,4.771858E-002,
   **   ~~~   ** Air System Named = CENTRAL SYSTEM did not converge for energy
   **   ~~~   ** Check values should be zero. Most Recent values listed first.
   **   ~~~   ** Demand-to-Supply interface energy check value iteration history trace: 1134.026642,1134.026642,1134.026642,1134.026642,1134.026642,1134.026643,1134.026643,1134.026643,1134.026643,1134.026643,
   **   ~~~   ** Supply-to-demand interface deck 1 energy check value iteration history trace: 336.638685,336.638685,336.638685,336.638685,336.638685,336.638685,336.638685,336.638685,336.638685,336.638685,
   ** Warning ** SimHVAC: Maximum iterations (20) exceeded for all HVAC loops, at ANNUAL, 11/11 15:45 - 16:00
   **   ~~~   ** The solution for one or more of the Air Loop HVAC systems did not appear to converge
   **   ~~~   ** Air System Named = CENTRAL SYSTEM did not converge for mass flow rate
   **   ~~~   ** Check values should be zero. Most Recent values listed first.
   **   ~~~   ** Demand-to-Supply interface mass flow rate check value iteration history trace: 6.416852E-002,6.416852E-002,6.416852E-002,6.416852E-002,6.416852E-002,6.416852E-002,6.416852E-002,6.416852E-002,6.416852E-002,6.416852E-002,
   **   ~~~   ** Supply-to-demand interface deck 1 mass flow rate check value iteration history trace: 6.416852E-002,6.416852E-002,6.416852E-002,6.416852E-002,6.416852E-002,6.416852E-002,6.416852E-002,6.416852E-002,6.416852E-002,6.416852E-002,
   **   ~~~   ** Air System Named = CENTRAL SYSTEM did not converge for energy
   **   ~~~   ** Check values should be zero. Most Recent values listed first.
   **   ~~~   ** Demand-to-Supply interface energy check value iteration history trace: 1517.439022,1517.439022,1517.439022,1517.439022,1517.439022,1517.439022,1517.439022,1517.439022,1517.439023,1517.439023,
   **   ~~~   ** Supply-to-demand interface deck 1 energy check value iteration history trace: 447.675675,447.675675,447.675676,447.675676,447.675676,447.675676,447.675676,447.675676,447.675676,447.675676,
   ** Warning ** SimHVAC: Maximum iterations (20) exceeded for all HVAC loops, at ANNUAL, 11/19 07:30 - 07:35
   **   ~~~   ** The solution for one or more of the Air Loop HVAC systems did not appear to converge
   **   ~~~   ** Air System Named = CENTRAL SYSTEM did not converge for mass flow rate
   **   ~~~   ** Check values should be zero. Most Recent values listed first.
   **   ~~~   ** Demand-to-Supply interface mass flow rate check value iteration history trace: 4.888420E-002,4.888420E-002,4.888420E-002,4.888420E-002,4.888420E-002,4.888420E-002,4.888420E-002,4.888420E-002,4.888420E-002,4.888420E-002,
   **   ~~~   ** Supply-to-demand interface deck 1 mass flow rate check value iteration history trace: 4.888420E-002,4.888420E-002,4.888420E-002,4.888420E-002,4.888420E-002,4.888420E-002,4.888420E-002,4.888420E-002,4.888420E-002,4.888420E-002,
   **   ~~~   ** Air System Named = CENTRAL SYSTEM did not converge for energy
   **   ~~~   ** Check values should be zero. Most Recent values listed first.
   **   ~~~   ** Demand-to-Supply interface energy check value iteration history trace: 968.698214,968.698214,968.698214,968.698214,968.698214,968.698214,968.698214,968.698214,968.698214,968.698214,
   **   ~~~   ** Supply-to-demand interface deck 1 energy check value iteration history trace: 1797.663271,1797.663271,1797.663270,1797.663270,1797.663270,1797.663270,1797.663270,1797.663270,1797.663270,1797.663270,
   ** Warning ** SimHVAC: Maximum iterations (20) exceeded for all HVAC loops, at ANNUAL, 11/26 04:15 - 04:22
   **   ~~~   ** The solution for one or more of the Air Loop HVAC systems did not appear to converge
   **   ~~~   ** Air System Named = CENTRAL SYSTEM did not converge for mass flow rate
   **   ~~~   ** Check values should be zero. Most Recent values listed first.
   **   ~~~   ** Demand-to-Supply interface mass flow rate check value iteration history trace: 5.487309E-002,5.487309E-002,5.487309E-002,5.487309E-002,5.487309E-002,5.487309E-002,5.487309E-002,5.487309E-002,5.487309E-002,5.487309E-002,
   **   ~~~   ** Supply-to-demand interface deck 1 mass flow rate check value iteration history trace: 5.487309E-002,5.487309E-002,5.487309E-002,5.487309E-002,5.487309E-002,5.487309E-002,5.487309E-002,5.487309E-002,5.487309E-002,5.487309E-002,
   **   ~~~   ** Air System Named = CENTRAL SYSTEM did not converge for energy
   **   ~~~   ** Check values should be zero. Most Recent values listed first.
   **   ~~~   ** Demand-to-Supply interface energy check value iteration history trace: 1021.973267,1021.973267,1021.973267,1021.973267,1021.973267,1021.973267,1021.973267,1021.973267,1021.973267,1021.973266,
   **   ~~~   ** Supply-to-demand interface deck 1 energy check value iteration history trace: 1720.127276,1720.127276,1720.127276,1720.127276,1720.127276,1720.127276,1720.127276,1720.127275,1720.127275,1720.127275,
   ** Warning ** SimHVAC: Maximum iterations (20) exceeded for all HVAC loops, at ANNUAL, 12/08 09:15 - 09:30
   **   ~~~   ** The solution for one or more of the Air Loop HVAC systems did not appear to converge
   **   ~~~   ** Air System Named = CENTRAL SYSTEM did not converge for mass flow rate
   **   ~~~   ** Check values should be zero. Most Recent values listed first.
   **   ~~~   ** Demand-to-Supply interface mass flow rate check value iteration history trace: 5.262219E-002,5.262219E-002,5.262219E-002,5.262219E-002,5.262219E-002,5.262219E-002,5.262219E-002,5.262219E-002,5.262219E-002,5.262219E-002,
   **   ~~~   ** Supply-to-demand interface deck 1 mass flow rate check value iteration history trace: 5.262219E-002,5.262219E-002,5.262219E-002,5.262219E-002,5.262219E-002,5.262219E-002,5.262219E-002,5.262219E-002,5.262219E-002,5.262219E-002,
   **   ~~~   ** Air System Named = CENTRAL SYSTEM did not converge for energy
   **   ~~~   ** Check values should be zero. Most Recent values listed first.
   **   ~~~   ** Demand-to-Supply interface energy check value iteration history trace: 1042.760891,1042.760891,1042.760891,1042.760891,1042.760891,1042.760891,1042.760891,1042.760891,1042.760891,1042.760891,
   **   ~~~   ** Supply-to-demand interface deck 1 energy check value iteration history trace: 1862.157341,1862.157341,1862.157341,1862.157341,1862.157341,1862.157341,1862.157340,1862.157340,1862.157340,1862.157340,
   ** Warning ** SimHVAC: Maximum iterations (20) exceeded for all HVAC loops, at ANNUAL, 12/09 09:30 - 09:45
   **   ~~~   ** The solution for one or more of the Air Loop HVAC systems did not appear to converge
   **   ~~~   ** Air System Named = CENTRAL SYSTEM did not converge for mass flow rate
   **   ~~~   ** Check values should be zero. Most Recent values listed first.
   **   ~~~   ** Demand-to-Supply interface mass flow rate check value iteration history trace: 5.734154E-002,5.734154E-002,5.734154E-002,5.734154E-002,5.734154E-002,5.734154E-002,5.734154E-002,5.734154E-002,5.734154E-002,5.734154E-002,
   **   ~~~   ** Supply-to-demand interface deck 1 mass flow rate check value iteration history trace: 5.734154E-002,5.734154E-002,5.734154E-002,5.734154E-002,5.734154E-002,5.734154E-002,5.734154E-002,5.734154E-002,5.734154E-002,5.734154E-002,
   **   ~~~   ** Air System Named = CENTRAL SYSTEM did not converge for energy
   **   ~~~   ** Check values should be zero. Most Recent values listed first.
   **   ~~~   ** Demand-to-Supply interface energy check value iteration history trace: 1136.292573,1136.292573,1136.292573,1136.292573,1136.292573,1136.292573,1136.292573,1136.292573,1136.292573,1136.292573,
   **   ~~~   ** Supply-to-demand interface deck 1 energy check value iteration history trace: 2004.590317,2004.590317,2004.590317,2004.590317,2004.590317,2004.590317,2004.590317,2004.590317,2004.590316,2004.590316,
   ************* Simulation Error Summary *************
   ** Warning ** The following Report Variables were requested but not generated -- check.rdd file
   **   ~~~   ** Either the IDF did not contain these elements, the variable name is misspelled,
   **   ~~~   ** or the requested variable is an advanced output which requires Output : Diagnostics, DisplayAdvancedReportVariables;
   ************* Key=*, VarName=BASEBOARD TOTAL HEATING ENERGY, Frequency=
   ************* Key=*, VarName=WATER HEATER NATURALGAS ENERGY, Frequency=
   ************* Key=*, VarName=COOLING COIL TOTAL HEATING ENERGY, Frequency=
   ************* There are 34 unused schedules in input.
   ************* There are 388 unused week schedules in input.
   ************* There are 396 unused day schedules in input.
   ************* Use Output:Diagnostics,DisplayUnusedSchedules; to see them.
   *************
   ************* ===== Recurring Error Summary =====
   ************* The following recurring error messages occurred.
   *************
   *************  ** Warning ** "TOTAL HOT WATER LOAD" - Target water temperature should be less than or equal to the hot water temperature error continues...
   *************  **   ~~~   **   This error occurred 71907 total times;
   *************  **   ~~~   **   during Warmup 0 times;
   *************  **   ~~~   **   during Sizing 0 times.
   *************  **   ~~~   **   Max=6.721567  Min=2.477086E-004
   *************
   *************  ** Warning ** Temperature out of range [-100. to 200.] (PsyPsatFnTemp)
   *************  **   ~~~   **   This error occurred 2 total times;
   *************  **   ~~~   **   during Warmup 0 times;
   *************  **   ~~~   **   during Sizing 0 times.
   *************  **   ~~~   **   Max=-154.344551 C  Min=-166.66993 C
   *************
   *************  ** Warning ** WetBulb not converged after max iterations(PsyTwbFnTdbWPb)
   *************  **   ~~~   **   This error occurred 19 total times;
   *************  **   ~~~   **   during Warmup 0 times;
   *************  **   ~~~   **   during Sizing 0 times.
   *************
   *************  ** Warning ** SimHVAC: Exceeding Maximum iterations for all HVAC loops, during ANNUAL continues
   *************  **   ~~~   **   This error occurred 1 total times;
   *************  **   ~~~   **   during Warmup 0 times;
   *************  **   ~~~   **   during Sizing 0 times.
   *************
   *************
   ************* ===== Final Error Summary =====
   ************* The following error categories occurred.  Consider correcting or noting.
   ************* Nominally Unused Constructions
   ************* ..The nominally unused constructions warning is provided to alert you to potential conditions that can cause
   ************* ..extra time during simulation. Each construction is calculated by the algorithm indicated in the HeatBalanceAlgorithm
   ************* ..object. You may remove the constructions indicated (when you use the DisplayExtraWarnings option).
   *************
   ************* EnergyPlus Warmup Error Summary. During Warmup: 1 Warning; 0 Severe Errors.
   ************* EnergyPlus Sizing Error Summary. During Sizing: 4 Warning; 0 Severe Errors.
   ************* EnergyPlus Completed Successfully-- 71961 Warning; 0 Severe Errors; Elapsed Time=00hr 01min 51.00sec
