Program Version,EnergyPlus, Version 22.2.0-c249759bad, YMD=2023.09.01 14:43,
   ************* Beginning Zone Sizing Calculations
   ** Warning ** ProcessScheduleInput: Schedule:Constant="ALWAYS ON DISCRETE", Schedule Type Limits Name="ONOFF" not found -- will not be validated
   ** Warning ** Foundation:Kiva="KIVA FOUNDATION", no Interior Horizontal Insulation Material Name defined
   **   ~~~   ** Interior Horizontal Insulation Depth will not be used.
   ** Warning ** CheckUsedConstructions: There are 15 nominally unused constructions in input.
   **   ~~~   ** Each Unused construction is shown.
   ************* Construction=INTERIOR FLOOR
   ************* Construction=INTERIOR WINDOW
   ************* Construction=EXTERIOR DOOR
   ************* Construction=INTERIOR DOOR
   ************* Construction=GABLE CONSTRUCTION
   ************* Construction=CRAWL_FLOOR
   ************* Construction=INSULATED PIPE
   ************* Construction=PLAIN PIPE
   ************* Construction=TDD PIPE
   ************* Construction=TDD DOME
   ************* Construction=TDD DIFFUSER
   ************* Construction=CRAWL WALL
   ************* Construction=CEILING-FLOOR-LAYER
   ************* Construction=SLAB CONSTRUCTION W FULL R10 INSULATION
   ************* Construction=SLAB CONSTRUCTION W FULL R5 INSULATION
   ** Warning ** GetDXCoils: Coil:Heating:DX:SingleSpeed="DX_HEATING_COIL" curve values
   **   ~~~   ** ... Defrost Energy Input Ratio Function of Temperature Curve Name = DEFROSTEIR output is not equal to 1.0 (+ or - 10%) at rated conditions.
   **   ~~~   ** ... Curve output at rated conditions = 0.152
   ************* Beginning System Sizing Calculations
   ************* Beginning Plant Sizing Calculations
   ** Warning ** SizeDXCoil Coil:Cooling:DX:SingleSpeed DX_COOLING_COIL
   **   ~~~   ** ...Gross Rated Total Cooling Capacity [W] will be limited by the maximum rated volume flow per rated total capacity ratio.
   **   ~~~   ** ...DX coil volume flow rate ( m3/s ) = 0.389432
   **   ~~~   ** ...Requested capacity ( W ) = 5898.995
   **   ~~~   ** ...Requested flow/capacity ratio ( m3/s/W ) = 6.601E-005
   **   ~~~   ** ...Maximum flow/capacity ratio ( m3/s/W ) = 6.041E-005
   **   ~~~   ** ...Adjusted capacity ( W ) = 6446.485
   ** Warning ** Coil:WaterHeating:AirToWaterHeatPump:Wrapped "HEAT PUMP WATER HEATER EVAPORATOR": Rated air volume flow rate per watt of rated total water heating capacity is out of range
   **   ~~~   ** Min Rated Vol Flow Per Watt=[4.027E-005], Rated Vol Flow Per Watt=[1.386E-004], Max Rated Vol Flow Per Watt=[8.056E-005]. See Input-Output Reference Manual for valid range.
   ** Warning ** Water heater = WATER HEATER TANK:  Recovery Efficiency and Energy Factor could not be calculated during the test for standard ratings
   **   ~~~   ** Setpoint was never recovered and/or heater never turned on
   ** Warning ** Check input. Pump nominal power or motor efficiency is set to 0, for pump=MAINS PRESSURE
   ** Warning ** Output:Meter: invalid Key Name="ELECTRIC_RANGE:INTERIOREQUIPMENT:ELECTRICITY" - not found.
   ** Warning ** Output:Meter: invalid Key Name="ELECTRIC_DRYER:INTERIOREQUIPMENT:ELECTRICITY" - not found.
   ** Warning ** Output:Meter: invalid Key Name="HEATRECOVERY:ELECTRICITY" - not found.
   ** Warning ** Output:Meter: invalid Key Name="HEATING:NATURALGAS" - not found.
   ** Warning ** Output:Meter: invalid Key Name="WATERSYSTEMS:NATURALGAS" - not found.
   ** Warning ** Output:Meter: invalid Key Name="PROPANE:FACILITY" - not found.
   ** Warning ** Output:Meter: invalid Key Name="HEATING:PROPANE" - not found.
   ************* Testing Individual Branch Integrity
   ************* All Branches passed integrity testing
   ************* Testing Individual Supply Air Path Integrity
   ************* All Supply Air Paths passed integrity testing
   ************* Testing Individual Return Air Path Integrity
   ************* All Return Air Paths passed integrity testing
   ************* No node connection errors were found.
   ************* Beginning Simulation
   ** Warning ** AirflowNetwork::Solver::validate_distribution: Heat pump water heater is simulated along with an AirflowNetwork but is not included in the AirflowNetwork.
   ** Warning ** CalcEquipmentFlowRates: "TOTAL HOT WATER LOAD" - Target water temperature is greater than the hot water temperature by (1.65 C)
   **   ~~~   **  Environment=EXTREME_WINTER, at Simulation time=01/15 06:00 - 06:15
   **   ~~~   ** ...target water temperature     = 53.33 C
   **   ~~~   ** ...hot water temperature        = 51.68 C
   **   ~~~   ** ...Target water temperature should be less than or equal to the hot water temperature. Verify temperature setpoints and schedules.
   ** Warning ** SimHVAC: Maximum iterations (20) exceeded for all HVAC loops, at ANNUAL, 01/03 17:15 - 17:30
   **   ~~~   ** The solution for one or more of the Air Loop HVAC systems did not appear to converge
   **   ~~~   ** Air System Named = CENTRAL SYSTEM did not converge for mass flow rate
   **   ~~~   ** Check values should be zero. Most Recent values listed first.
   **   ~~~   ** Demand-to-Supply interface mass flow rate check value iteration history trace: 6.785245E-002,6.785245E-002,6.785245E-002,6.785245E-002,6.785245E-002,6.785245E-002,6.785245E-002,6.785245E-002,6.785245E-002,6.785245E-002,
   **   ~~~   ** Supply-to-demand interface deck 1 mass flow rate check value iteration history trace: 6.785245E-002,6.785245E-002,6.785245E-002,6.785245E-002,6.785245E-002,6.785245E-002,6.785245E-002,6.785245E-002,6.785245E-002,6.785245E-002,
   **   ~~~   ** Air System Named = CENTRAL SYSTEM did not converge for energy
   **   ~~~   ** Check values should be zero. Most Recent values listed first.
   **   ~~~   ** Demand-to-Supply interface energy check value iteration history trace: 1344.196173,1344.196173,1344.196173,1344.196173,1344.196173,1344.196173,1344.196172,1344.196172,1344.196172,1344.196172,
   **   ~~~   ** Supply-to-demand interface deck 1 energy check value iteration history trace: 2402.209366,2402.209366,2402.209366,2402.209366,2402.209365,2402.209365,2402.209365,2402.209365,2402.209365,2402.209365,
   ** Warning ** SimHVAC: Maximum iterations (20) exceeded for all HVAC loops, at ANNUAL, 01/22 09:51 - 09:52
   **   ~~~   ** The solution for one or more of the Air Loop HVAC systems did not appear to converge
   **   ~~~   ** Air System Named = CENTRAL SYSTEM did not converge for mass flow rate
   **   ~~~   ** Check values should be zero. Most Recent values listed first.
   **   ~~~   ** Demand-to-Supply interface mass flow rate check value iteration history trace: 7.944719E-002,7.944719E-002,7.944719E-002,7.944719E-002,7.944719E-002,7.944719E-002,7.944719E-002,7.944719E-002,7.944719E-002,7.944719E-002,
   **   ~~~   ** Supply-to-demand interface deck 1 mass flow rate check value iteration history trace: 7.944719E-002,7.944719E-002,7.944719E-002,7.944719E-002,7.944719E-002,7.944719E-002,7.944719E-002,7.944719E-002,7.944719E-002,7.944719E-002,
   **   ~~~   ** Air System Named = CENTRAL SYSTEM did not converge for energy
   **   ~~~   ** Check values should be zero. Most Recent values listed first.
   **   ~~~   ** Demand-to-Supply interface energy check value iteration history trace: 1569.172846,1569.172846,1569.172845,1569.172845,1569.172845,1569.172845,1569.172845,1569.172845,1569.172845,1569.172845,
   **   ~~~   ** Supply-to-demand interface deck 1 energy check value iteration history trace: 2755.159435,2755.159435,2755.159435,2755.159435,2755.159435,2755.159435,2755.159435,2755.159435,2755.159435,2755.159434,
   ** Warning ** SimHVAC: Maximum iterations (20) exceeded for all HVAC loops, at ANNUAL, 02/12 08:45 - 09:00
   **   ~~~   ** The solution for one or more of the Air Loop HVAC systems did not appear to converge
   **   ~~~   ** Air System Named = CENTRAL SYSTEM did not converge for mass flow rate
   **   ~~~   ** Check values should be zero. Most Recent values listed first.
   **   ~~~   ** Demand-to-Supply interface mass flow rate check value iteration history trace: 7.696317E-002,7.696317E-002,7.696317E-002,7.696317E-002,7.696317E-002,7.696317E-002,7.696317E-002,7.696317E-002,7.696317E-002,7.696317E-002,
   **   ~~~   ** Supply-to-demand interface deck 1 mass flow rate check value iteration history trace: 7.696317E-002,7.696317E-002,7.696317E-002,7.696317E-002,7.696317E-002,7.696317E-002,7.696317E-002,7.696317E-002,7.696317E-002,7.696317E-002,
   **   ~~~   ** Air System Named = CENTRAL SYSTEM did not converge for energy
   **   ~~~   ** Check values should be zero. Most Recent values listed first.
   **   ~~~   ** Demand-to-Supply interface energy check value iteration history trace: 1522.475733,1522.475733,1522.475733,1522.475733,1522.475733,1522.475733,1522.475733,1522.475733,1522.475733,1522.475733,
   **   ~~~   ** Supply-to-demand interface deck 1 energy check value iteration history trace: 2612.998008,2612.998007,2612.998007,2612.998007,2612.998007,2612.998007,2612.998007,2612.998007,2612.998007,2612.998007,
   ** Warning ** SimHVAC: Maximum iterations (20) exceeded for all HVAC loops, at ANNUAL, 03/12 09:28 - 09:30
   **   ~~~   ** The solution for one or more of the Air Loop HVAC systems did not appear to converge
   **   ~~~   ** Air System Named = CENTRAL SYSTEM did not converge for mass flow rate
   **   ~~~   ** Check values should be zero. Most Recent values listed first.
   **   ~~~   ** Demand-to-Supply interface mass flow rate check value iteration history trace: 7.098568E-002,7.098568E-002,7.098568E-002,7.098568E-002,7.098568E-002,7.098568E-002,7.098568E-002,7.098568E-002,7.098568E-002,7.098568E-002,
   **   ~~~   ** Supply-to-demand interface deck 1 mass flow rate check value iteration history trace: 7.098568E-002,7.098568E-002,7.098568E-002,7.098568E-002,7.098568E-002,7.098568E-002,7.098568E-002,7.098568E-002,7.098568E-002,7.098568E-002,
   **   ~~~   ** Air System Named = CENTRAL SYSTEM did not converge for energy
   **   ~~~   ** Check values should be zero. Most Recent values listed first.
   **   ~~~   ** Demand-to-Supply interface energy check value iteration history trace: 1398.910116,1398.910116,1398.910116,1398.910116,1398.910116,1398.910116,1398.910116,1398.910116,1398.910116,1398.910116,
   **   ~~~   ** Supply-to-demand interface deck 1 energy check value iteration history trace: 2454.823706,2454.823706,2454.823705,2454.823705,2454.823705,2454.823705,2454.823705,2454.823705,2454.823705,2454.823705,
   ** Warning ** SimHVAC: Maximum iterations (20) exceeded for all HVAC loops, at ANNUAL, 04/30 09:26 - 09:28
   **   ~~~   ** The solution for one or more of the Air Loop HVAC systems did not appear to converge
   **   ~~~   ** Air System Named = CENTRAL SYSTEM did not converge for mass flow rate
   **   ~~~   ** Check values should be zero. Most Recent values listed first.
   **   ~~~   ** Demand-to-Supply interface mass flow rate check value iteration history trace: 0.170480,0.170480,0.170480,0.170480,0.170480,0.170480,0.170480,0.170480,0.170480,0.170480,
   **   ~~~   ** Supply-to-demand interface deck 1 mass flow rate check value iteration history trace: 0.170480,0.170480,0.170480,0.170480,0.170480,0.170480,0.170480,0.170480,0.170480,0.170480,
   **   ~~~   ** Air System Named = CENTRAL SYSTEM did not converge for energy
   **   ~~~   ** Check values should be zero. Most Recent values listed first.
   **   ~~~   ** Demand-to-Supply interface energy check value iteration history trace: 4028.021693,4028.021693,4028.021694,4028.021695,4028.021695,4028.021696,4028.021696,4028.021697,4028.021697,4028.021698,
   **   ~~~   ** Supply-to-demand interface deck 1 energy check value iteration history trace: 2186.501547,2186.501548,2186.501548,2186.501548,2186.501549,2186.501549,2186.501549,2186.501550,2186.501550,2186.501550,
   ** Warning ** SimHVAC: Maximum iterations (20) exceeded for all HVAC loops, at ANNUAL, 11/13 14:05 - 14:10
   **   ~~~   ** The solution for one or more of the Air Loop HVAC systems did not appear to converge
   **   ~~~   ** Air System Named = CENTRAL SYSTEM did not converge for mass flow rate
   **   ~~~   ** Check values should be zero. Most Recent values listed first.
   **   ~~~   ** Demand-to-Supply interface mass flow rate check value iteration history trace: 0.256478,0.256478,0.256478,0.256478,0.256478,0.256478,0.256478,0.256478,0.256478,0.256478,
   **   ~~~   ** Supply-to-demand interface deck 1 mass flow rate check value iteration history trace: 0.256478,0.256478,0.256478,0.256478,0.256478,0.256478,0.256478,0.256478,0.256478,0.256478,
   **   ~~~   ** Air System Named = CENTRAL SYSTEM did not converge for energy
   **   ~~~   ** Check values should be zero. Most Recent values listed first.
   **   ~~~   ** Demand-to-Supply interface energy check value iteration history trace: 6087.524249,6087.524249,6087.524249,6087.524250,6087.524250,6087.524251,6087.524251,6087.524252,6087.524252,6087.524252,
   **   ~~~   ** Supply-to-demand interface deck 1 energy check value iteration history trace: 3298.063710,3298.063711,3298.063711,3298.063711,3298.063711,3298.063711,3298.063712,3298.063712,3298.063712,3298.063712,
   ** Warning ** SimHVAC: Maximum iterations (20) exceeded for all HVAC loops, at ANNUAL, 11/13 20:30 - 20:45
   **   ~~~   ** The solution for one or more of the Air Loop HVAC systems did not appear to converge
   **   ~~~   ** Air System Named = CENTRAL SYSTEM did not converge for mass flow rate
   **   ~~~   ** Check values should be zero. Most Recent values listed first.
   **   ~~~   ** Demand-to-Supply interface mass flow rate check value iteration history trace: 0.154621,0.154621,0.154621,0.154621,0.154621,0.154621,0.154621,0.154621,0.154621,0.154621,
   **   ~~~   ** Supply-to-demand interface deck 1 mass flow rate check value iteration history trace: 0.154621,0.154621,0.154621,0.154621,0.154621,0.154621,0.154621,0.154621,0.154621,0.154621,
   **   ~~~   ** Air System Named = CENTRAL SYSTEM did not converge for energy
   **   ~~~   ** Check values should be zero. Most Recent values listed first.
   **   ~~~   ** Demand-to-Supply interface energy check value iteration history trace: 3728.873773,3728.873773,3728.873773,3728.873774,3728.873774,3728.873774,3728.873774,3728.873775,3728.873775,3728.873775,
   **   ~~~   ** Supply-to-demand interface deck 1 energy check value iteration history trace: 1900.814158,1900.814158,1900.814158,1900.814158,1900.814159,1900.814159,1900.814159,1900.814159,1900.814159,1900.814159,
   ** Warning ** SimHVAC: Maximum iterations (20) exceeded for all HVAC loops, at ANNUAL, 11/20 07:45 - 08:00
   **   ~~~   ** The solution for one or more of the Air Loop HVAC systems did not appear to converge
   **   ~~~   ** Air System Named = CENTRAL SYSTEM did not converge for mass flow rate
   **   ~~~   ** Check values should be zero. Most Recent values listed first.
   **   ~~~   ** Demand-to-Supply interface mass flow rate check value iteration history trace: 2.063696E-002,2.063696E-002,2.063696E-002,2.063696E-002,2.063696E-002,2.063696E-002,2.063696E-002,2.063696E-002,2.063696E-002,2.063696E-002,
   **   ~~~   ** Supply-to-demand interface deck 1 mass flow rate check value iteration history trace: 2.063696E-002,2.063696E-002,2.063696E-002,2.063696E-002,2.063696E-002,2.063696E-002,2.063696E-002,2.063696E-002,2.063696E-002,2.063696E-002,
   **   ~~~   ** Air System Named = CENTRAL SYSTEM did not converge for energy
   **   ~~~   ** Check values should be zero. Most Recent values listed first.
   **   ~~~   ** Demand-to-Supply interface energy check value iteration history trace: 402.549376,402.549376,402.549376,402.549376,402.549376,402.549376,402.549376,402.549376,402.549376,402.549376,
   **   ~~~   ** Supply-to-demand interface deck 1 energy check value iteration history trace: 721.873300,721.873300,721.873300,721.873300,721.873300,721.873300,721.873300,721.873300,721.873300,721.873300,
   ** Warning ** SimHVAC: Maximum iterations (20) exceeded for all HVAC loops, at ANNUAL, 11/21 07:00 - 07:15
   **   ~~~   ** The solution for one or more of the Air Loop HVAC systems did not appear to converge
   **   ~~~   ** Air System Named = CENTRAL SYSTEM did not converge for mass flow rate
   **   ~~~   ** Check values should be zero. Most Recent values listed first.
   **   ~~~   ** Demand-to-Supply interface mass flow rate check value iteration history trace: 6.110543E-002,6.110543E-002,6.110543E-002,6.110543E-002,6.110543E-002,6.110543E-002,6.110543E-002,6.110543E-002,6.110543E-002,6.110543E-002,
   **   ~~~   ** Supply-to-demand interface deck 1 mass flow rate check value iteration history trace: 6.110543E-002,6.110543E-002,6.110543E-002,6.110543E-002,6.110543E-002,6.110543E-002,6.110543E-002,6.110543E-002,6.110543E-002,6.110543E-002,
   **   ~~~   ** Air System Named = CENTRAL SYSTEM did not converge for energy
   **   ~~~   ** Check values should be zero. Most Recent values listed first.
   **   ~~~   ** Demand-to-Supply interface energy check value iteration history trace: 1210.744067,1210.744067,1210.744067,1210.744067,1210.744067,1210.744067,1210.744066,1210.744066,1210.744066,1210.744066,
   **   ~~~   ** Supply-to-demand interface deck 1 energy check value iteration history trace: 2085.270752,2085.270752,2085.270752,2085.270752,2085.270752,2085.270752,2085.270751,2085.270751,2085.270751,2085.270751,
   ** Warning ** SimHVAC: Maximum iterations (20) exceeded for all HVAC loops, at ANNUAL, 12/23 09:30 - 09:45
   **   ~~~   ** The solution for one or more of the Air Loop HVAC systems did not appear to converge
   **   ~~~   ** Air System Named = CENTRAL SYSTEM did not converge for mass flow rate
   **   ~~~   ** Check values should be zero. Most Recent values listed first.
   **   ~~~   ** Demand-to-Supply interface mass flow rate check value iteration history trace: 7.715041E-002,7.715041E-002,7.715041E-002,7.715041E-002,7.715041E-002,7.715041E-002,7.715041E-002,7.715041E-002,7.715041E-002,7.715041E-002,
   **   ~~~   ** Supply-to-demand interface deck 1 mass flow rate check value iteration history trace: 7.715041E-002,7.715041E-002,7.715041E-002,7.715041E-002,7.715041E-002,7.715041E-002,7.715041E-002,7.715041E-002,7.715041E-002,7.715041E-002,
   **   ~~~   ** Air System Named = CENTRAL SYSTEM did not converge for energy
   **   ~~~   ** Check values should be zero. Most Recent values listed first.
   **   ~~~   ** Demand-to-Supply interface energy check value iteration history trace: 1524.763123,1524.763123,1524.763123,1524.763123,1524.763123,1524.763123,1524.763123,1524.763123,1524.763123,1524.763123,
   **   ~~~   ** Supply-to-demand interface deck 1 energy check value iteration history trace: 2695.763668,2695.763668,2695.763667,2695.763667,2695.763667,2695.763667,2695.763667,2695.763667,2695.763667,2695.763666,
   ** Warning ** SimHVAC: Maximum iterations (20) exceeded for all HVAC loops, at ANNUAL, 12/30 09:18 - 09:21
   **   ~~~   ** The solution for one or more of the Air Loop HVAC systems did not appear to converge
   **   ~~~   ** Air System Named = CENTRAL SYSTEM did not converge for mass flow rate
   **   ~~~   ** Check values should be zero. Most Recent values listed first.
   **   ~~~   ** Demand-to-Supply interface mass flow rate check value iteration history trace: 9.579945E-002,9.579945E-002,9.579945E-002,9.579945E-002,9.579945E-002,9.579945E-002,9.579945E-002,9.579945E-002,9.579945E-002,9.579945E-002,
   **   ~~~   ** Supply-to-demand interface deck 1 mass flow rate check value iteration history trace: 9.579945E-002,9.579945E-002,9.579945E-002,9.579945E-002,9.579945E-002,9.579945E-002,9.579945E-002,9.579945E-002,9.579945E-002,9.579945E-002,
   **   ~~~   ** Air System Named = CENTRAL SYSTEM did not converge for energy
   **   ~~~   ** Check values should be zero. Most Recent values listed first.
   **   ~~~   ** Demand-to-Supply interface energy check value iteration history trace: 1898.417756,1898.417756,1898.417756,1898.417756,1898.417756,1898.417756,1898.417756,1898.417756,1898.417755,1898.417755,
   **   ~~~   ** Supply-to-demand interface deck 1 energy check value iteration history trace: 3179.452117,3179.452117,3179.452117,3179.452117,3179.452116,3179.452116,3179.452116,3179.452116,3179.452116,3179.452116,
   ************* Simulation Error Summary *************
   ** Warning ** The following Report Variables were requested but not generated -- check.rdd file
   **   ~~~   ** Either the IDF did not contain these elements, the variable name is misspelled,
   **   ~~~   ** or the requested variable is an advanced output which requires Output : Diagnostics, DisplayAdvancedReportVariables;
   ************* Key=*, VarName=BASEBOARD TOTAL HEATING ENERGY, Frequency=
   ************* Key=*, VarName=WATER HEATER NATURALGAS ENERGY, Frequency=
   ************* Key=*, VarName=COOLING COIL TOTAL HEATING ENERGY, Frequency=
   ************* There are 34 unused schedules in input.
   ************* There are 388 unused week schedules in input.
   ************* There are 396 unused day schedules in input.
   ************* Use Output:Diagnostics,DisplayUnusedSchedules; to see them.
   *************
   ************* ===== Recurring Error Summary =====
   ************* The following recurring error messages occurred.
   *************
   *************  ** Warning ** "TOTAL HOT WATER LOAD" - Target water temperature should be less than or equal to the hot water temperature error continues...
   *************  **   ~~~   **   This error occurred 119545 total times;
   *************  **   ~~~   **   during Warmup 0 times;
   *************  **   ~~~   **   during Sizing 0 times.
   *************  **   ~~~   **   Max=7.284554  Min=1.321239E-004
   *************
   *************
   ************* ===== Final Error Summary =====
   ************* The following error categories occurred.  Consider correcting or noting.
   ************* Nominally Unused Constructions
   ************* ..The nominally unused constructions warning is provided to alert you to potential conditions that can cause
   ************* ..extra time during simulation. Each construction is calculated by the algorithm indicated in the HeatBalanceAlgorithm
   ************* ..object. You may remove the constructions indicated (when you use the DisplayExtraWarnings option).
   *************
   ************* EnergyPlus Warmup Error Summary. During Warmup: 1 Warning; 0 Severe Errors.
   ************* EnergyPlus Sizing Error Summary. During Sizing: 4 Warning; 0 Severe Errors.
   ************* EnergyPlus Completed Successfully-- 119574 Warning; 0 Severe Errors; Elapsed Time=00hr 06min  8.84sec
