Program Version,EnergyPlus, Version 22.2.0-c249759bad, YMD=2023.09.01 19:12,
   ************* Beginning Zone Sizing Calculations
   ** Warning ** ProcessScheduleInput: Schedule:Constant="ALWAYS ON DISCRETE", Schedule Type Limits Name="ONOFF" not found -- will not be validated
   ** Warning ** Foundation:Kiva="KIVA FOUNDATION", no Interior Horizontal Insulation Material Name defined
   **   ~~~   ** Interior Horizontal Insulation Depth will not be used.
   ** Warning ** CheckUsedConstructions: There are 15 nominally unused constructions in input.
   **   ~~~   ** Each Unused construction is shown.
   ************* Construction=INTERIOR FLOOR
   ************* Construction=INTERIOR WINDOW
   ************* Construction=EXTERIOR DOOR
   ************* Construction=INTERIOR DOOR
   ************* Construction=GABLE CONSTRUCTION
   ************* Construction=CRAWL_FLOOR
   ************* Construction=INSULATED PIPE
   ************* Construction=PLAIN PIPE
   ************* Construction=TDD PIPE
   ************* Construction=TDD DOME
   ************* Construction=TDD DIFFUSER
   ************* Construction=CRAWL WALL
   ************* Construction=CEILING-FLOOR-LAYER
   ************* Construction=SLAB CONSTRUCTION W FULL R10 INSULATION
   ************* Construction=SLAB CONSTRUCTION W FULL R5 INSULATION
   ** Warning ** GetDXCoils: Coil:Heating:DX:SingleSpeed="DX_HEATING_COIL" curve values
   **   ~~~   ** ... Defrost Energy Input Ratio Function of Temperature Curve Name = DEFROSTEIR output is not equal to 1.0 (+ or - 10%) at rated conditions.
   **   ~~~   ** ... Curve output at rated conditions = 0.152
   ************* Beginning System Sizing Calculations
   ************* Beginning Plant Sizing Calculations
   ** Warning ** SizeDXCoil Coil:Cooling:DX:SingleSpeed DX_COOLING_COIL
   **   ~~~   ** ...Gross Rated Total Cooling Capacity [W] will be limited by the maximum rated volume flow per rated total capacity ratio.
   **   ~~~   ** ...DX coil volume flow rate ( m3/s ) = 0.289577
   **   ~~~   ** ...Requested capacity ( W ) = 4210.495
   **   ~~~   ** ...Requested flow/capacity ratio ( m3/s/W ) = 6.877E-005
   **   ~~~   ** ...Maximum flow/capacity ratio ( m3/s/W ) = 6.041E-005
   **   ~~~   ** ...Adjusted capacity ( W ) = 4793.543
   ** Warning ** Coil:WaterHeating:AirToWaterHeatPump:Wrapped "HEAT PUMP WATER HEATER EVAPORATOR": Rated air volume flow rate per watt of rated total water heating capacity is out of range
   **   ~~~   ** Min Rated Vol Flow Per Watt=[4.027E-005], Rated Vol Flow Per Watt=[1.510E-004], Max Rated Vol Flow Per Watt=[8.056E-005]. See Input-Output Reference Manual for valid range.
   ************* SizeFan: : Potential issue with equipment sizing for Fan:OnOff HEAT PUMP WATER HEATER FAN
   **   ~~~   ** User-Specified Maximum Flow Rate [m3/s] = 0.22653
   **   ~~~   ** differs from Design Size Maximum Flow Rate [m3/s] = 7.55250E-002
   **   ~~~   ** This may, or may not, indicate mismatched component sizes.
   **   ~~~   ** Verify that the value entered is intended and is consistent with other components.
   ** Warning ** Water heater = WATER HEATER TANK:  Recovery Efficiency and Energy Factor could not be calculated during the test for standard ratings
   **   ~~~   ** Setpoint was never recovered and/or heater never turned on
   ** Warning ** Check input. Pump nominal power or motor efficiency is set to 0, for pump=MAINS PRESSURE
   ** Warning ** AirflowNetwork::Solver::validate_distribution: Heat pump water heater is simulated along with an AirflowNetwork but is not included in the AirflowNetwork.
   ** Warning ** Output:Meter: invalid Key Name="ELECTRIC_RANGE:INTERIOREQUIPMENT:ELECTRICITY" - not found.
   ** Warning ** Output:Meter: invalid Key Name="ELECTRIC_DRYER:INTERIOREQUIPMENT:ELECTRICITY" - not found.
   ** Warning ** Output:Meter: invalid Key Name="HEATRECOVERY:ELECTRICITY" - not found.
   ** Warning ** Output:Meter: invalid Key Name="HEATING:NATURALGAS" - not found.
   ** Warning ** Output:Meter: invalid Key Name="WATERSYSTEMS:NATURALGAS" - not found.
   ** Warning ** Output:Meter: invalid Key Name="PROPANE:FACILITY" - not found.
   ** Warning ** Output:Meter: invalid Key Name="HEATING:PROPANE" - not found.
   ************* Testing Individual Branch Integrity
   ************* All Branches passed integrity testing
   ************* Testing Individual Supply Air Path Integrity
   ************* All Supply Air Paths passed integrity testing
   ************* Testing Individual Return Air Path Integrity
   ************* All Return Air Paths passed integrity testing
   ************* No node connection errors were found.
   ************* Beginning Simulation
   ** Warning ** CalcEquipmentFlowRates: "TOTAL HOT WATER LOAD" - Target water temperature is greater than the hot water temperature by (1.19 C)
   **   ~~~   **  Environment=EXTREME_WINTER, at Simulation time=12/22 06:45 - 07:00
   **   ~~~   ** ...target water temperature     = 53.33 C
   **   ~~~   ** ...hot water temperature        = 52.15 C
   **   ~~~   ** ...Target water temperature should be less than or equal to the hot water temperature. Verify temperature setpoints and schedules.
   ** Warning ** SimHVAC: Maximum iterations (20) exceeded for all HVAC loops, at ANNUAL, 03/14 15:15 - 15:22
   **   ~~~   ** The solution for one or more of the Air Loop HVAC systems did not appear to converge
   **   ~~~   ** Air System Named = CENTRAL SYSTEM did not converge for mass flow rate
   **   ~~~   ** Check values should be zero. Most Recent values listed first.
   **   ~~~   ** Demand-to-Supply interface mass flow rate check value iteration history trace: 7.699102E-002,7.699102E-002,7.699102E-002,7.699102E-002,7.699102E-002,7.699102E-002,7.699102E-002,7.699102E-002,7.699102E-002,7.699102E-002,
   **   ~~~   ** Supply-to-demand interface deck 1 mass flow rate check value iteration history trace: 7.699102E-002,7.699102E-002,7.699102E-002,7.699102E-002,7.699102E-002,7.699102E-002,7.699102E-002,7.699102E-002,7.699102E-002,7.699102E-002,
   **   ~~~   ** Air System Named = CENTRAL SYSTEM did not converge for energy
   **   ~~~   ** Check values should be zero. Most Recent values listed first.
   **   ~~~   ** Demand-to-Supply interface energy check value iteration history trace: 1525.858876,1525.858876,1525.858876,1525.858876,1525.858876,1525.858876,1525.858875,1525.858875,1525.858875,1525.858875,
   **   ~~~   ** Supply-to-demand interface deck 1 energy check value iteration history trace: 2373.641536,2373.641535,2373.641535,2373.641535,2373.641535,2373.641535,2373.641535,2373.641535,2373.641534,2373.641534,
   ** Warning ** SimHVAC: Maximum iterations (20) exceeded for all HVAC loops, at ANNUAL, 03/16 14:00 - 14:15
   **   ~~~   ** The solution for one or more of the Air Loop HVAC systems did not appear to converge
   **   ~~~   ** Air System Named = CENTRAL SYSTEM did not converge for mass flow rate
   **   ~~~   ** Check values should be zero. Most Recent values listed first.
   **   ~~~   ** Demand-to-Supply interface mass flow rate check value iteration history trace: 7.685808E-002,7.685808E-002,7.685808E-002,7.685808E-002,7.685808E-002,7.685808E-002,7.685808E-002,7.685808E-002,7.685808E-002,7.685808E-002,
   **   ~~~   ** Supply-to-demand interface deck 1 mass flow rate check value iteration history trace: 7.685808E-002,7.685808E-002,7.685808E-002,7.685808E-002,7.685808E-002,7.685808E-002,7.685808E-002,7.685808E-002,7.685808E-002,7.685808E-002,
   **   ~~~   ** Air System Named = CENTRAL SYSTEM did not converge for energy
   **   ~~~   ** Check values should be zero. Most Recent values listed first.
   **   ~~~   ** Demand-to-Supply interface energy check value iteration history trace: 1523.101096,1523.101096,1523.101096,1523.101096,1523.101096,1523.101096,1523.101096,1523.101096,1523.101096,1523.101095,
   **   ~~~   ** Supply-to-demand interface deck 1 energy check value iteration history trace: 2271.062079,2271.062079,2271.062079,2271.062079,2271.062078,2271.062078,2271.062078,2271.062078,2271.062078,2271.062077,
   ** Warning ** Temperature out of range [-100. to 200.] (PsyPsatFnTemp)
   **   ~~~   **  Routine=PsyTwbFnTdbWPb, Environment=ANNUAL, at Simulation time=03/26 18:00 - 18:04
   **   ~~~   **  Input Temperature=-1469.43
   ** Warning ** SimHVAC: Maximum iterations (20) exceeded for all HVAC loops, at ANNUAL, 04/09 10:00 - 10:15
   **   ~~~   ** The solution for one or more of the Air Loop HVAC systems did not appear to converge
   **   ~~~   ** Air System Named = CENTRAL SYSTEM did not converge for mass flow rate
   **   ~~~   ** Check values should be zero. Most Recent values listed first.
   **   ~~~   ** Demand-to-Supply interface mass flow rate check value iteration history trace: 7.918402E-002,7.918402E-002,7.918402E-002,7.918402E-002,7.918402E-002,7.918402E-002,7.918402E-002,7.918402E-002,7.918402E-002,7.918402E-002,
   **   ~~~   ** Supply-to-demand interface deck 1 mass flow rate check value iteration history trace: 7.918402E-002,7.918402E-002,7.918402E-002,7.918402E-002,7.918402E-002,7.918402E-002,7.918402E-002,7.918402E-002,7.918402E-002,7.918402E-002,
   **   ~~~   ** Air System Named = CENTRAL SYSTEM did not converge for energy
   **   ~~~   ** Check values should be zero. Most Recent values listed first.
   **   ~~~   ** Demand-to-Supply interface energy check value iteration history trace: 1568.335331,1568.335331,1568.335331,1568.335331,1568.335331,1568.335331,1568.335331,1568.335331,1568.335331,1568.335330,
   **   ~~~   ** Supply-to-demand interface deck 1 energy check value iteration history trace: 2472.417030,2472.417029,2472.417029,2472.417029,2472.417029,2472.417029,2472.417029,2472.417029,2472.417028,2472.417028,
   ** Warning ** SimHVAC: Maximum iterations (20) exceeded for all HVAC loops, at ANNUAL, 04/18 07:30 - 07:45
   **   ~~~   ** The solution for one or more of the Air Loop HVAC systems did not appear to converge
   **   ~~~   ** Air System Named = CENTRAL SYSTEM did not converge for mass flow rate
   **   ~~~   ** Check values should be zero. Most Recent values listed first.
   **   ~~~   ** Demand-to-Supply interface mass flow rate check value iteration history trace: 7.943015E-002,7.943015E-002,7.943015E-002,7.943015E-002,7.943015E-002,7.943015E-002,7.943015E-002,7.943015E-002,7.943015E-002,7.943015E-002,
   **   ~~~   ** Supply-to-demand interface deck 1 mass flow rate check value iteration history trace: 7.943015E-002,7.943015E-002,7.943015E-002,7.943015E-002,7.943015E-002,7.943015E-002,7.943015E-002,7.943015E-002,7.943015E-002,7.943015E-002,
   **   ~~~   ** Air System Named = CENTRAL SYSTEM did not converge for energy
   **   ~~~   ** Check values should be zero. Most Recent values listed first.
   **   ~~~   ** Demand-to-Supply interface energy check value iteration history trace: 1574.007951,1574.007951,1574.007951,1574.007951,1574.007951,1574.007951,1574.007950,1574.007950,1574.007950,1574.007950,
   **   ~~~   ** Supply-to-demand interface deck 1 energy check value iteration history trace: 2482.702146,2482.702146,2482.702146,2482.702146,2482.702146,2482.702146,2482.702146,2482.702145,2482.702145,2482.702145,
   ** Warning ** SimHVAC: Maximum iterations (20) exceeded for all HVAC loops, at ANNUAL, 04/21 08:45 - 08:52
   **   ~~~   ** The solution for one or more of the Air Loop HVAC systems did not appear to converge
   **   ~~~   ** Air System Named = CENTRAL SYSTEM did not converge for mass flow rate
   **   ~~~   ** Check values should be zero. Most Recent values listed first.
   **   ~~~   ** Demand-to-Supply interface mass flow rate check value iteration history trace: 7.703741E-002,7.703741E-002,7.703741E-002,7.703741E-002,7.703741E-002,7.703741E-002,7.703741E-002,7.703741E-002,7.703741E-002,7.703741E-002,
   **   ~~~   ** Supply-to-demand interface deck 1 mass flow rate check value iteration history trace: 7.703741E-002,7.703741E-002,7.703741E-002,7.703741E-002,7.703741E-002,7.703741E-002,7.703741E-002,7.703741E-002,7.703741E-002,7.703741E-002,
   **   ~~~   ** Air System Named = CENTRAL SYSTEM did not converge for energy
   **   ~~~   ** Check values should be zero. Most Recent values listed first.
   **   ~~~   ** Demand-to-Supply interface energy check value iteration history trace: 1526.429136,1526.429135,1526.429135,1526.429135,1526.429135,1526.429135,1526.429135,1526.429135,1526.429135,1526.429135,
   **   ~~~   ** Supply-to-demand interface deck 1 energy check value iteration history trace: 2564.828739,2564.828739,2564.828739,2564.828739,2564.828739,2564.828739,2564.828738,2564.828738,2564.828738,2564.828738,
   ** Warning ** SimHVAC: Maximum iterations (20) exceeded for all HVAC loops, at ANNUAL, 04/21 09:40 - 09:45
   **   ~~~   ** The solution for one or more of the Air Loop HVAC systems did not appear to converge
   **   ~~~   ** Air System Named = CENTRAL SYSTEM did not converge for mass flow rate
   **   ~~~   ** Check values should be zero. Most Recent values listed first.
   **   ~~~   ** Demand-to-Supply interface mass flow rate check value iteration history trace: 6.626503E-002,6.626503E-002,6.626503E-002,6.626503E-002,6.626503E-002,6.626503E-002,6.626503E-002,6.626503E-002,6.626503E-002,6.626503E-002,
   **   ~~~   ** Supply-to-demand interface deck 1 mass flow rate check value iteration history trace: 6.626503E-002,6.626503E-002,6.626503E-002,6.626503E-002,6.626503E-002,6.626503E-002,6.626503E-002,6.626503E-002,6.626503E-002,6.626503E-002,
   **   ~~~   ** Air System Named = CENTRAL SYSTEM did not converge for energy
   **   ~~~   ** Check values should be zero. Most Recent values listed first.
   **   ~~~   ** Demand-to-Supply interface energy check value iteration history trace: 1309.070793,1309.070793,1309.070793,1309.070793,1309.070793,1309.070793,1309.070793,1309.070793,1309.070793,1309.070793,
   **   ~~~   ** Supply-to-demand interface deck 1 energy check value iteration history trace: 2219.368520,2219.368520,2219.368520,2219.368520,2219.368520,2219.368520,2219.368520,2219.368520,2219.368519,2219.368519,
   ** Warning ** SimHVAC: Maximum iterations (20) exceeded for all HVAC loops, at ANNUAL, 05/07 08:30 - 08:33
   **   ~~~   ** The solution for one or more of the Air Loop HVAC systems did not appear to converge
   **   ~~~   ** Air System Named = CENTRAL SYSTEM did not converge for mass flow rate
   **   ~~~   ** Check values should be zero. Most Recent values listed first.
   **   ~~~   ** Demand-to-Supply interface mass flow rate check value iteration history trace: 8.276415E-002,8.276415E-002,8.276415E-002,8.276415E-002,8.276415E-002,8.276415E-002,8.276415E-002,8.276415E-002,8.276415E-002,8.276415E-002,
   **   ~~~   ** Supply-to-demand interface deck 1 mass flow rate check value iteration history trace: 8.276415E-002,8.276415E-002,8.276415E-002,8.276415E-002,8.276415E-002,8.276415E-002,8.276415E-002,8.276415E-002,8.276415E-002,8.276415E-002,
   **   ~~~   ** Air System Named = CENTRAL SYSTEM did not converge for energy
   **   ~~~   ** Check values should be zero. Most Recent values listed first.
   **   ~~~   ** Demand-to-Supply interface energy check value iteration history trace: 1640.108301,1640.108301,1640.108301,1640.108301,1640.108301,1640.108301,1640.108301,1640.108301,1640.108300,1640.108300,
   **   ~~~   ** Supply-to-demand interface deck 1 energy check value iteration history trace: 2768.124913,2768.124913,2768.124913,2768.124913,2768.124912,2768.124912,2768.124912,2768.124912,2768.124912,2768.124912,
   ** Warning ** SimHVAC: Maximum iterations (20) exceeded for all HVAC loops, at ANNUAL, 05/08 08:05 - 08:07
   **   ~~~   ** The solution for one or more of the Air Loop HVAC systems did not appear to converge
   **   ~~~   ** Air System Named = CENTRAL SYSTEM did not converge for mass flow rate
   **   ~~~   ** Check values should be zero. Most Recent values listed first.
   **   ~~~   ** Demand-to-Supply interface mass flow rate check value iteration history trace: 8.135466E-002,8.135466E-002,8.135466E-002,8.135466E-002,8.135466E-002,8.135466E-002,8.135466E-002,8.135466E-002,8.135466E-002,8.135466E-002,
   **   ~~~   ** Supply-to-demand interface deck 1 mass flow rate check value iteration history trace: 8.135466E-002,8.135466E-002,8.135466E-002,8.135466E-002,8.135466E-002,8.135466E-002,8.135466E-002,8.135466E-002,8.135466E-002,8.135466E-002,
   **   ~~~   ** Air System Named = CENTRAL SYSTEM did not converge for energy
   **   ~~~   ** Check values should be zero. Most Recent values listed first.
   **   ~~~   ** Demand-to-Supply interface energy check value iteration history trace: 1611.048990,1611.048990,1611.048990,1611.048990,1611.048990,1611.048990,1611.048989,1611.048989,1611.048989,1611.048989,
   **   ~~~   ** Supply-to-demand interface deck 1 energy check value iteration history trace: 2734.716704,2734.716704,2734.716704,2734.716704,2734.716704,2734.716704,2734.716703,2734.716703,2734.716703,2734.716703,
   ** Warning ** SimHVAC: Maximum iterations (20) exceeded for all HVAC loops, at ANNUAL, 05/11 13:45 - 14:00
   **   ~~~   ** The solution for one or more of the Air Loop HVAC systems did not appear to converge
   **   ~~~   ** Air System Named = CENTRAL SYSTEM did not converge for mass flow rate
   **   ~~~   ** Check values should be zero. Most Recent values listed first.
   **   ~~~   ** Demand-to-Supply interface mass flow rate check value iteration history trace: 1.284289E-002,1.284289E-002,1.284289E-002,1.284289E-002,1.284289E-002,1.284289E-002,1.284289E-002,1.284289E-002,1.284289E-002,1.284289E-002,
   **   ~~~   ** Supply-to-demand interface deck 1 mass flow rate check value iteration history trace: 1.284289E-002,1.284289E-002,1.284289E-002,1.284289E-002,1.284289E-002,1.284289E-002,1.284289E-002,1.284289E-002,1.284289E-002,1.284289E-002,
   **   ~~~   ** Air System Named = CENTRAL SYSTEM did not converge for energy
   **   ~~~   ** Check values should be zero. Most Recent values listed first.
   **   ~~~   ** Demand-to-Supply interface energy check value iteration history trace: 252.345571,252.345571,252.345571,252.345571,252.345571,252.345571,252.345571,252.345571,252.345571,252.345571,
   **   ~~~   ** Supply-to-demand interface deck 1 energy check value iteration history trace: 451.208202,451.208202,451.208202,451.208202,451.208202,451.208202,451.208202,451.208202,451.208202,451.208202,
   ** Warning ** SimHVAC: Maximum iterations (20) exceeded for all HVAC loops, at ANNUAL, 05/12 09:45 - 10:00
   **   ~~~   ** The solution for one or more of the Air Loop HVAC systems did not appear to converge
   **   ~~~   ** Air System Named = CENTRAL SYSTEM did not converge for mass flow rate
   **   ~~~   ** Check values should be zero. Most Recent values listed first.
   **   ~~~   ** Demand-to-Supply interface mass flow rate check value iteration history trace: 4.556658E-002,4.556658E-002,4.556658E-002,4.556658E-002,4.556658E-002,4.556658E-002,4.556658E-002,4.556658E-002,4.556658E-002,4.556658E-002,
   **   ~~~   ** Supply-to-demand interface deck 1 mass flow rate check value iteration history trace: 4.556658E-002,4.556658E-002,4.556658E-002,4.556658E-002,4.556658E-002,4.556658E-002,4.556658E-002,4.556658E-002,4.556658E-002,4.556658E-002,
   **   ~~~   ** Air System Named = CENTRAL SYSTEM did not converge for energy
   **   ~~~   ** Check values should be zero. Most Recent values listed first.
   **   ~~~   ** Demand-to-Supply interface energy check value iteration history trace: 902.320354,902.320354,902.320354,902.320354,902.320354,902.320354,902.320354,902.320354,902.320354,902.320354,
   **   ~~~   ** Supply-to-demand interface deck 1 energy check value iteration history trace: 1560.965470,1560.965469,1560.965469,1560.965469,1560.965469,1560.965469,1560.965469,1560.965469,1560.965469,1560.965469,
   ** Warning ** SimHVAC: Maximum iterations (20) exceeded for all HVAC loops, at ANNUAL, 07/13 07:38 - 07:45
   **   ~~~   ** The solution for one or more of the Air Loop HVAC systems did not appear to converge
   **   ~~~   ** Air System Named = CENTRAL SYSTEM did not converge for mass flow rate
   **   ~~~   ** Check values should be zero. Most Recent values listed first.
   **   ~~~   ** Demand-to-Supply interface mass flow rate check value iteration history trace: 4.781157E-002,4.781157E-002,4.781157E-002,4.781157E-002,4.781157E-002,4.781157E-002,4.781157E-002,4.781157E-002,4.781157E-002,4.781157E-002,
   **   ~~~   ** Supply-to-demand interface deck 1 mass flow rate check value iteration history trace: 4.781157E-002,4.781157E-002,4.781157E-002,4.781157E-002,4.781157E-002,4.781157E-002,4.781157E-002,4.781157E-002,4.781157E-002,4.781157E-002,
   **   ~~~   ** Air System Named = CENTRAL SYSTEM did not converge for energy
   **   ~~~   ** Check values should be zero. Most Recent values listed first.
   **   ~~~   ** Demand-to-Supply interface energy check value iteration history trace: 1114.005175,1114.005175,1114.005175,1114.005175,1114.005175,1114.005175,1114.005175,1114.005175,1114.005176,1114.005176,
   **   ~~~   ** Supply-to-demand interface deck 1 energy check value iteration history trace: 593.763134,593.763134,593.763134,593.763134,593.763134,593.763134,593.763134,593.763134,593.763134,593.763134,
   ** Warning ** SimHVAC: Maximum iterations (20) exceeded for all HVAC loops, at ANNUAL, 07/17 00:23 - 00:30
   **   ~~~   ** The solution for one or more of the Air Loop HVAC systems did not appear to converge
   **   ~~~   ** Air System Named = CENTRAL SYSTEM did not converge for energy
   **   ~~~   ** Check values should be zero. Most Recent values listed first.
   **   ~~~   ** Demand-to-Supply interface energy check value iteration history trace: 71.323730,71.323730,71.323730,71.323730,71.323730,71.323730,71.323730,71.323730,71.323730,71.323730,
   **   ~~~   ** Supply-to-demand interface deck 1 energy check value iteration history trace: 33.899767,33.899767,33.899767,33.899767,33.899767,33.899767,33.899767,33.899767,33.899767,33.899767,
   ** Warning ** SimHVAC: Maximum iterations (20) exceeded for all HVAC loops, at ANNUAL, 07/22 10:06 - 10:09
   **   ~~~   ** The solution for one or more of the Air Loop HVAC systems did not appear to converge
   **   ~~~   ** Air System Named = CENTRAL SYSTEM did not converge for mass flow rate
   **   ~~~   ** Check values should be zero. Most Recent values listed first.
   **   ~~~   ** Demand-to-Supply interface mass flow rate check value iteration history trace: 8.463212E-002,8.463212E-002,8.463212E-002,8.463212E-002,8.463212E-002,8.463212E-002,8.463212E-002,8.463212E-002,8.463212E-002,8.463212E-002,
   **   ~~~   ** Supply-to-demand interface deck 1 mass flow rate check value iteration history trace: 8.463212E-002,8.463212E-002,8.463212E-002,8.463212E-002,8.463212E-002,8.463212E-002,8.463212E-002,8.463212E-002,8.463212E-002,8.463212E-002,
   **   ~~~   ** Air System Named = CENTRAL SYSTEM did not converge for energy
   **   ~~~   ** Check values should be zero. Most Recent values listed first.
   **   ~~~   ** Demand-to-Supply interface energy check value iteration history trace: 1991.759949,1991.759950,1991.759951,1991.759951,1991.759952,1991.759952,1991.759953,1991.759954,1991.759954,1991.759955,
   **   ~~~   ** Supply-to-demand interface deck 1 energy check value iteration history trace: 1079.169774,1079.169774,1079.169774,1079.169775,1079.169775,1079.169775,1079.169776,1079.169776,1079.169776,1079.169777,
   ** Warning ** SimHVAC: Maximum iterations (20) exceeded for all HVAC loops, at ANNUAL, 08/31 12:15 - 12:30
   **   ~~~   ** The solution for one or more of the Air Loop HVAC systems did not appear to converge
   **   ~~~   ** Air System Named = CENTRAL SYSTEM did not converge for mass flow rate
   **   ~~~   ** Check values should be zero. Most Recent values listed first.
   **   ~~~   ** Demand-to-Supply interface mass flow rate check value iteration history trace: 6.909766E-002,6.909766E-002,6.909766E-002,6.909766E-002,6.909766E-002,6.909766E-002,6.909766E-002,6.909766E-002,6.909766E-002,6.909766E-002,
   **   ~~~   ** Supply-to-demand interface deck 1 mass flow rate check value iteration history trace: 6.909766E-002,6.909766E-002,6.909766E-002,6.909766E-002,6.909766E-002,6.909766E-002,6.909766E-002,6.909766E-002,6.909766E-002,6.909766E-002,
   **   ~~~   ** Air System Named = CENTRAL SYSTEM did not converge for energy
   **   ~~~   ** Check values should be zero. Most Recent values listed first.
   **   ~~~   ** Demand-to-Supply interface energy check value iteration history trace: 1642.102429,1642.102429,1642.102429,1642.102429,1642.102429,1642.102429,1642.102430,1642.102430,1642.102430,1642.102430,
   **   ~~~   ** Supply-to-demand interface deck 1 energy check value iteration history trace: 887.144146,887.144147,887.144147,887.144147,887.144147,887.144147,887.144147,887.144147,887.144147,887.144147,
   ************* Simulation Error Summary *************
   ** Warning ** The following Report Variables were requested but not generated -- check.rdd file
   **   ~~~   ** Either the IDF did not contain these elements, the variable name is misspelled,
   **   ~~~   ** or the requested variable is an advanced output which requires Output : Diagnostics, DisplayAdvancedReportVariables;
   ************* Key=*, VarName=BASEBOARD TOTAL HEATING ENERGY, Frequency=
   ************* Key=*, VarName=WATER HEATER NATURALGAS ENERGY, Frequency=
   ************* Key=*, VarName=COOLING COIL TOTAL HEATING ENERGY, Frequency=
   ************* There are 34 unused schedules in input.
   ************* There are 388 unused week schedules in input.
   ************* There are 397 unused day schedules in input.
   ************* Use Output:Diagnostics,DisplayUnusedSchedules; to see them.
   *************
   ************* ===== Recurring Error Summary =====
   ************* The following recurring error messages occurred.
   *************
   *************  ** Warning ** "TOTAL HOT WATER LOAD" - Target water temperature should be less than or equal to the hot water temperature error continues...
   *************  **   ~~~   **   This error occurred 90047 total times;
   *************  **   ~~~   **   during Warmup 0 times;
   *************  **   ~~~   **   during Sizing 0 times.
   *************  **   ~~~   **   Max=9.773346  Min=2.065567E-005
   *************
   *************  ** Warning ** Temperature out of range [-100. to 200.] (PsyPsatFnTemp)
   *************  **   ~~~   **   This error occurred 1 total times;
   *************  **   ~~~   **   during Warmup 0 times;
   *************  **   ~~~   **   during Sizing 0 times.
   *************  **   ~~~   **   Max=-1469.435303 C  Min=-1469.435303 C
   *************
   *************  ** Warning ** SimHVAC: Exceeding Maximum iterations for all HVAC loops, during ANNUAL continues
   *************  **   ~~~   **   This error occurred 7 total times;
   *************  **   ~~~   **   during Warmup 0 times;
   *************  **   ~~~   **   during Sizing 0 times.
   *************
   *************
   ************* ===== Final Error Summary =====
   ************* The following error categories occurred.  Consider correcting or noting.
   ************* Nominally Unused Constructions
   ************* ..The nominally unused constructions warning is provided to alert you to potential conditions that can cause
   ************* ..extra time during simulation. Each construction is calculated by the algorithm indicated in the HeatBalanceAlgorithm
   ************* ..object. You may remove the constructions indicated (when you use the DisplayExtraWarnings option).
   *************
   ************* EnergyPlus Warmup Error Summary. During Warmup: 0 Warning; 0 Severe Errors.
   ************* EnergyPlus Sizing Error Summary. During Sizing: 4 Warning; 0 Severe Errors.
   ************* EnergyPlus Completed Successfully-- 90087 Warning; 0 Severe Errors; Elapsed Time=00hr 01min 28.67sec
