Program Version,EnergyPlus, Version 22.2.0-c249759bad, YMD=2023.09.01 19:22,
   ************* Beginning Zone Sizing Calculations
   ** Warning ** ProcessScheduleInput: Schedule:Constant="ALWAYS ON DISCRETE", Schedule Type Limits Name="ONOFF" not found -- will not be validated
   ** Warning ** Foundation:Kiva="KIVA FOUNDATION", no Interior Horizontal Insulation Material Name defined
   **   ~~~   ** Interior Horizontal Insulation Depth will not be used.
   ** Warning ** CheckUsedConstructions: There are 15 nominally unused constructions in input.
   **   ~~~   ** Each Unused construction is shown.
   ************* Construction=INTERIOR FLOOR
   ************* Construction=INTERIOR WINDOW
   ************* Construction=EXTERIOR DOOR
   ************* Construction=INTERIOR DOOR
   ************* Construction=GABLE CONSTRUCTION
   ************* Construction=CRAWL_FLOOR
   ************* Construction=INSULATED PIPE
   ************* Construction=PLAIN PIPE
   ************* Construction=TDD PIPE
   ************* Construction=TDD DOME
   ************* Construction=TDD DIFFUSER
   ************* Construction=CRAWL WALL
   ************* Construction=CEILING-FLOOR-LAYER
   ************* Construction=SLAB CONSTRUCTION W FULL R10 INSULATION
   ************* Construction=SLAB CONSTRUCTION W FULL R5 INSULATION
   ** Warning ** GetDXCoils: Coil:Heating:DX:SingleSpeed="DX_HEATING_COIL" curve values
   **   ~~~   ** ... Defrost Energy Input Ratio Function of Temperature Curve Name = DEFROSTEIR output is not equal to 1.0 (+ or - 10%) at rated conditions.
   **   ~~~   ** ... Curve output at rated conditions = 0.152
   ************* Beginning System Sizing Calculations
   ************* Beginning Plant Sizing Calculations
   ** Warning ** Coil:WaterHeating:AirToWaterHeatPump:Wrapped "HEAT PUMP WATER HEATER EVAPORATOR": Rated air volume flow rate per watt of rated total water heating capacity is out of range
   **   ~~~   ** Min Rated Vol Flow Per Watt=[4.027E-005], Rated Vol Flow Per Watt=[1.510E-004], Max Rated Vol Flow Per Watt=[8.056E-005]. See Input-Output Reference Manual for valid range.
   ************* SizeFan: : Potential issue with equipment sizing for Fan:OnOff HEAT PUMP WATER HEATER FAN
   **   ~~~   ** User-Specified Maximum Flow Rate [m3/s] = 0.22653
   **   ~~~   ** differs from Design Size Maximum Flow Rate [m3/s] = 7.55250E-002
   **   ~~~   ** This may, or may not, indicate mismatched component sizes.
   **   ~~~   ** Verify that the value entered is intended and is consistent with other components.
   ** Warning ** Water heater = WATER HEATER TANK:  Recovery Efficiency and Energy Factor could not be calculated during the test for standard ratings
   **   ~~~   ** Setpoint was never recovered and/or heater never turned on
   ** Warning ** Check input. Pump nominal power or motor efficiency is set to 0, for pump=MAINS PRESSURE
   ** Warning ** Output:Meter: invalid Key Name="ELECTRIC_RANGE:INTERIOREQUIPMENT:ELECTRICITY" - not found.
   ** Warning ** Output:Meter: invalid Key Name="ELECTRIC_DRYER:INTERIOREQUIPMENT:ELECTRICITY" - not found.
   ** Warning ** Output:Meter: invalid Key Name="HEATRECOVERY:ELECTRICITY" - not found.
   ** Warning ** Output:Meter: invalid Key Name="HEATING:NATURALGAS" - not found.
   ** Warning ** Output:Meter: invalid Key Name="WATERSYSTEMS:NATURALGAS" - not found.
   ** Warning ** Output:Meter: invalid Key Name="PROPANE:FACILITY" - not found.
   ** Warning ** Output:Meter: invalid Key Name="HEATING:PROPANE" - not found.
   ************* Testing Individual Branch Integrity
   ************* All Branches passed integrity testing
   ************* Testing Individual Supply Air Path Integrity
   ************* All Supply Air Paths passed integrity testing
   ************* Testing Individual Return Air Path Integrity
   ************* All Return Air Paths passed integrity testing
   ************* No node connection errors were found.
   ************* Beginning Simulation
   ** Warning ** AirflowNetwork::Solver::validate_distribution: Heat pump water heater is simulated along with an AirflowNetwork but is not included in the AirflowNetwork.
   ** Warning ** CalcEquipmentFlowRates: "TOTAL HOT WATER LOAD" - Target water temperature is greater than the hot water temperature by (2.42 C)
   **   ~~~   **  Environment=EXTREME_WINTER, at Simulation time=01/29 06:00 - 06:15
   **   ~~~   ** ...target water temperature     = 53.33 C
   **   ~~~   ** ...hot water temperature        = 50.91 C
   **   ~~~   ** ...Target water temperature should be less than or equal to the hot water temperature. Verify temperature setpoints and schedules.
   ** Warning ** SimHVAC: Maximum iterations (20) exceeded for all HVAC loops, at EXTREME_WINTER, 01/30 20:23 - 20:30
   **   ~~~   ** The solution for one or more of the Air Loop HVAC systems did not appear to converge
   **   ~~~   ** Air System Named = CENTRAL SYSTEM did not converge for mass flow rate
   **   ~~~   ** Check values should be zero. Most Recent values listed first.
   **   ~~~   ** Demand-to-Supply interface mass flow rate check value iteration history trace: 0.103546,0.103546,0.103546,0.103546,0.103546,0.103546,0.103546,0.103546,0.103546,0.103546,
   **   ~~~   ** Supply-to-demand interface deck 1 mass flow rate check value iteration history trace: 0.103546,0.103546,0.103546,0.103546,0.103546,0.103546,0.103546,0.103546,0.103546,0.103546,
   **   ~~~   ** Air System Named = CENTRAL SYSTEM did not converge for energy
   **   ~~~   ** Check values should be zero. Most Recent values listed first.
   **   ~~~   ** Demand-to-Supply interface energy check value iteration history trace: 2041.212751,2041.212751,2041.212751,2041.212751,2041.212751,2041.212751,2041.212751,2041.212750,2041.212750,2041.212750,
   **   ~~~   ** Supply-to-demand interface deck 1 energy check value iteration history trace: 3025.915248,3025.915247,3025.915247,3025.915247,3025.915247,3025.915247,3025.915246,3025.915246,3025.915246,3025.915246,
   ** Warning ** SimHVAC: Maximum iterations (20) exceeded for all HVAC loops, at ANNUAL, 01/01 12:15 - 12:22
   **   ~~~   ** The solution for one or more of the Air Loop HVAC systems did not appear to converge
   **   ~~~   ** Air System Named = CENTRAL SYSTEM did not converge for mass flow rate
   **   ~~~   ** Check values should be zero. Most Recent values listed first.
   **   ~~~   ** Demand-to-Supply interface mass flow rate check value iteration history trace: 4.994176E-002,4.994176E-002,4.994176E-002,4.994176E-002,4.994176E-002,4.994176E-002,4.994176E-002,4.994176E-002,4.994176E-002,4.994176E-002,
   **   ~~~   ** Supply-to-demand interface deck 1 mass flow rate check value iteration history trace: 4.994176E-002,4.994176E-002,4.994176E-002,4.994176E-002,4.994176E-002,4.994176E-002,4.994176E-002,4.994176E-002,4.994176E-002,4.994176E-002,
   **   ~~~   ** Air System Named = CENTRAL SYSTEM did not converge for energy
   **   ~~~   ** Check values should be zero. Most Recent values listed first.
   **   ~~~   ** Demand-to-Supply interface energy check value iteration history trace: 989.661894,989.661894,989.661894,989.661894,989.661894,989.661894,989.661894,989.661894,989.661894,989.661894,
   **   ~~~   ** Supply-to-demand interface deck 1 energy check value iteration history trace: 1831.204568,1831.204568,1831.204567,1831.204567,1831.204567,1831.204567,1831.204567,1831.204567,1831.204567,1831.204567,
   ** Warning ** SimHVAC: Maximum iterations (20) exceeded for all HVAC loops, at ANNUAL, 02/11 04:50 - 04:55
   **   ~~~   ** The solution for one or more of the Air Loop HVAC systems did not appear to converge
   **   ~~~   ** Air System Named = CENTRAL SYSTEM did not converge for mass flow rate
   **   ~~~   ** Check values should be zero. Most Recent values listed first.
   **   ~~~   ** Demand-to-Supply interface mass flow rate check value iteration history trace: 5.867662E-002,5.867662E-002,5.867662E-002,5.867662E-002,5.867662E-002,5.867662E-002,5.867662E-002,5.867662E-002,5.867662E-002,5.867662E-002,
   **   ~~~   ** Supply-to-demand interface deck 1 mass flow rate check value iteration history trace: 5.867662E-002,5.867662E-002,5.867662E-002,5.867662E-002,5.867662E-002,5.867662E-002,5.867662E-002,5.867662E-002,5.867662E-002,5.867662E-002,
   **   ~~~   ** Air System Named = CENTRAL SYSTEM did not converge for energy
   **   ~~~   ** Check values should be zero. Most Recent values listed first.
   **   ~~~   ** Demand-to-Supply interface energy check value iteration history trace: 1096.822835,1096.822835,1096.822835,1096.822835,1096.822835,1096.822835,1096.822835,1096.822835,1096.822835,1096.822835,
   **   ~~~   ** Supply-to-demand interface deck 1 energy check value iteration history trace: 1890.688614,1890.688614,1890.688614,1890.688614,1890.688614,1890.688614,1890.688614,1890.688614,1890.688614,1890.688614,
   ** Warning ** SimHVAC: Maximum iterations (20) exceeded for all HVAC loops, at ANNUAL, 03/06 07:45 - 08:00
   **   ~~~   ** The solution for one or more of the Air Loop HVAC systems did not appear to converge
   **   ~~~   ** Air System Named = CENTRAL SYSTEM did not converge for mass flow rate
   **   ~~~   ** Check values should be zero. Most Recent values listed first.
   **   ~~~   ** Demand-to-Supply interface mass flow rate check value iteration history trace: 7.034823E-002,7.034823E-002,7.034823E-002,7.034823E-002,7.034823E-002,7.034823E-002,7.034823E-002,7.034823E-002,7.034823E-002,7.034823E-002,
   **   ~~~   ** Supply-to-demand interface deck 1 mass flow rate check value iteration history trace: 7.034823E-002,7.034823E-002,7.034823E-002,7.034823E-002,7.034823E-002,7.034823E-002,7.034823E-002,7.034823E-002,7.034823E-002,7.034823E-002,
   **   ~~~   ** Air System Named = CENTRAL SYSTEM did not converge for energy
   **   ~~~   ** Check values should be zero. Most Recent values listed first.
   **   ~~~   ** Demand-to-Supply interface energy check value iteration history trace: 1393.908891,1393.908891,1393.908891,1393.908891,1393.908891,1393.908891,1393.908891,1393.908891,1393.908891,1393.908891,
   **   ~~~   ** Supply-to-demand interface deck 1 energy check value iteration history trace: 2349.389646,2349.389646,2349.389646,2349.389646,2349.389646,2349.389646,2349.389646,2349.389646,2349.389645,2349.389645,
   ** Warning ** SimHVAC: Maximum iterations (20) exceeded for all HVAC loops, at ANNUAL, 04/03 07:50 - 07:52
   **   ~~~   ** The solution for one or more of the Air Loop HVAC systems did not appear to converge
   **   ~~~   ** Air System Named = CENTRAL SYSTEM did not converge for mass flow rate
   **   ~~~   ** Check values should be zero. Most Recent values listed first.
   **   ~~~   ** Demand-to-Supply interface mass flow rate check value iteration history trace: 0.209846,0.209846,0.209846,0.209846,0.209846,0.209846,0.209846,0.209846,0.209846,0.209846,
   **   ~~~   ** Supply-to-demand interface deck 1 mass flow rate check value iteration history trace: 0.209846,0.209846,0.209846,0.209846,0.209846,0.209846,0.209846,0.209846,0.209846,0.209846,
   **   ~~~   ** Air System Named = CENTRAL SYSTEM did not converge for energy
   **   ~~~   ** Check values should be zero. Most Recent values listed first.
   **   ~~~   ** Demand-to-Supply interface energy check value iteration history trace: 4935.496827,4935.496828,4935.496830,4935.496831,4935.496833,4935.496834,4935.496836,4935.496837,4935.496838,4935.496840,
   **   ~~~   ** Supply-to-demand interface deck 1 energy check value iteration history trace: 2596.481586,2596.481587,2596.481588,2596.481588,2596.481589,2596.481590,2596.481591,2596.481591,2596.481592,2596.481593,
   ** Warning ** SimHVAC: Maximum iterations (20) exceeded for all HVAC loops, at ANNUAL, 04/04 08:39 - 08:41
   **   ~~~   ** The solution for one or more of the Air Loop HVAC systems did not appear to converge
   **   ~~~   ** Air System Named = CENTRAL SYSTEM did not converge for mass flow rate
   **   ~~~   ** Check values should be zero. Most Recent values listed first.
   **   ~~~   ** Demand-to-Supply interface mass flow rate check value iteration history trace: 0.171383,0.171383,0.171383,0.171383,0.171383,0.171383,0.171383,0.171383,0.171383,0.171383,
   **   ~~~   ** Supply-to-demand interface deck 1 mass flow rate check value iteration history trace: 0.171383,0.171383,0.171383,0.171383,0.171383,0.171383,0.171383,0.171383,0.171383,0.171383,
   **   ~~~   ** Air System Named = CENTRAL SYSTEM did not converge for energy
   **   ~~~   ** Check values should be zero. Most Recent values listed first.
   **   ~~~   ** Demand-to-Supply interface energy check value iteration history trace: 4047.500352,4047.500354,4047.500355,4047.500356,4047.500358,4047.500359,4047.500360,4047.500362,4047.500363,4047.500364,
   **   ~~~   ** Supply-to-demand interface deck 1 energy check value iteration history trace: 2202.777949,2202.777950,2202.777951,2202.777952,2202.777952,2202.777953,2202.777954,2202.777954,2202.777955,2202.777956,
   ** Warning ** SimHVAC: Maximum iterations (20) exceeded for all HVAC loops, at ANNUAL, 04/09 11:08 - 11:11
   **   ~~~   ** The solution for one or more of the Air Loop HVAC systems did not appear to converge
   **   ~~~   ** Air System Named = CENTRAL SYSTEM did not converge for mass flow rate
   **   ~~~   ** Check values should be zero. Most Recent values listed first.
   **   ~~~   ** Demand-to-Supply interface mass flow rate check value iteration history trace: 9.014374E-002,9.014374E-002,9.014374E-002,9.014374E-002,9.014374E-002,9.014374E-002,9.014374E-002,9.014374E-002,9.014374E-002,9.014374E-002,
   **   ~~~   ** Supply-to-demand interface deck 1 mass flow rate check value iteration history trace: 9.014374E-002,9.014374E-002,9.014374E-002,9.014374E-002,9.014374E-002,9.014374E-002,9.014374E-002,9.014374E-002,9.014374E-002,9.014374E-002,
   **   ~~~   ** Air System Named = CENTRAL SYSTEM did not converge for energy
   **   ~~~   ** Check values should be zero. Most Recent values listed first.
   **   ~~~   ** Demand-to-Supply interface energy check value iteration history trace: 2128.801752,2128.801752,2128.801753,2128.801753,2128.801753,2128.801753,2128.801753,2128.801753,2128.801753,2128.801753,
   **   ~~~   ** Supply-to-demand interface deck 1 energy check value iteration history trace: 1003.024624,1003.024624,1003.024624,1003.024624,1003.024624,1003.024624,1003.024625,1003.024625,1003.024625,1003.024625,
   ** Warning ** SimHVAC: Maximum iterations (20) exceeded for all HVAC loops, at ANNUAL, 04/11 07:23 - 07:25
   **   ~~~   ** The solution for one or more of the Air Loop HVAC systems did not appear to converge
   **   ~~~   ** Air System Named = CENTRAL SYSTEM did not converge for mass flow rate
   **   ~~~   ** Check values should be zero. Most Recent values listed first.
   **   ~~~   ** Demand-to-Supply interface mass flow rate check value iteration history trace: 0.317341,0.317341,0.317341,0.317341,0.317341,0.317341,0.317341,0.317341,0.317341,0.317341,
   **   ~~~   ** Supply-to-demand interface deck 1 mass flow rate check value iteration history trace: 0.317341,0.317341,0.317341,0.317341,0.317341,0.317341,0.317341,0.317341,0.317341,0.317341,
   **   ~~~   ** Air System Named = CENTRAL SYSTEM did not converge for energy
   **   ~~~   ** Check values should be zero. Most Recent values listed first.
   **   ~~~   ** Demand-to-Supply interface energy check value iteration history trace: 7552.587944,7552.587946,7552.587949,7552.587951,7552.587953,7552.587955,7552.587957,7552.587959,7552.587962,7552.587964,
   **   ~~~   ** Supply-to-demand interface deck 1 energy check value iteration history trace: 4073.766019,4073.766020,4073.766021,4073.766023,4073.766024,4073.766025,4073.766026,4073.766027,4073.766028,4073.766030,
   ** Warning ** SimHVAC: Maximum iterations (20) exceeded for all HVAC loops, at ANNUAL, 04/11 09:09 - 09:12
   **   ~~~   ** The solution for one or more of the Air Loop HVAC systems did not appear to converge
   **   ~~~   ** Air System Named = CENTRAL SYSTEM did not converge for mass flow rate
   **   ~~~   ** Check values should be zero. Most Recent values listed first.
   **   ~~~   ** Demand-to-Supply interface mass flow rate check value iteration history trace: 0.169053,0.169053,0.169053,0.169053,0.169053,0.169053,0.169053,0.169053,0.169053,0.169053,
   **   ~~~   ** Supply-to-demand interface deck 1 mass flow rate check value iteration history trace: 0.169053,0.169053,0.169053,0.169053,0.169053,0.169053,0.169053,0.169053,0.169053,0.169053,
   **   ~~~   ** Air System Named = CENTRAL SYSTEM did not converge for energy
   **   ~~~   ** Check values should be zero. Most Recent values listed first.
   **   ~~~   ** Demand-to-Supply interface energy check value iteration history trace: 4006.385615,4006.385615,4006.385615,4006.385615,4006.385616,4006.385616,4006.385616,4006.385617,4006.385617,4006.385617,
   **   ~~~   ** Supply-to-demand interface deck 1 energy check value iteration history trace: 2123.510513,2123.510513,2123.510513,2123.510513,2123.510514,2123.510514,2123.510514,2123.510514,2123.510514,2123.510514,
   ** Warning ** SimHVAC: Maximum iterations (20) exceeded for all HVAC loops, at ANNUAL, 04/12 11:32 - 11:35
   **   ~~~   ** The solution for one or more of the Air Loop HVAC systems did not appear to converge
   **   ~~~   ** Air System Named = CENTRAL SYSTEM did not converge for mass flow rate
   **   ~~~   ** Check values should be zero. Most Recent values listed first.
   **   ~~~   ** Demand-to-Supply interface mass flow rate check value iteration history trace: 3.637151E-002,3.637151E-002,3.637151E-002,3.637151E-002,3.637151E-002,3.637151E-002,3.637151E-002,3.637151E-002,3.637151E-002,3.637151E-002,
   **   ~~~   ** Supply-to-demand interface deck 1 mass flow rate check value iteration history trace: 3.637151E-002,3.637151E-002,3.637151E-002,3.637151E-002,3.637151E-002,3.637151E-002,3.637151E-002,3.637151E-002,3.637151E-002,3.637151E-002,
   **   ~~~   ** Air System Named = CENTRAL SYSTEM did not converge for energy
   **   ~~~   ** Check values should be zero. Most Recent values listed first.
   **   ~~~   ** Demand-to-Supply interface energy check value iteration history trace: 855.492631,855.492631,855.492631,855.492631,855.492631,855.492631,855.492631,855.492631,855.492631,855.492631,
   **   ~~~   ** Supply-to-demand interface deck 1 energy check value iteration history trace: 416.927353,416.927353,416.927353,416.927353,416.927353,416.927353,416.927353,416.927353,416.927353,416.927353,
   ** Warning ** SimHVAC: Maximum iterations (20) exceeded for all HVAC loops, at ANNUAL, 04/16 00:08 - 00:15
   **   ~~~   ** The solution for one or more of the Air Loop HVAC systems did not appear to converge
   **   ~~~   ** Air System Named = CENTRAL SYSTEM did not converge for mass flow rate
   **   ~~~   ** Check values should be zero. Most Recent values listed first.
   **   ~~~   ** Demand-to-Supply interface mass flow rate check value iteration history trace: 0.137524,0.137524,0.137524,0.137524,0.137524,0.137524,0.137524,0.137524,0.137524,0.137524,
   **   ~~~   ** Supply-to-demand interface deck 1 mass flow rate check value iteration history trace: 0.137524,0.137524,0.137524,0.137524,0.137524,0.137524,0.137524,0.137524,0.137524,0.137524,
   **   ~~~   ** Air System Named = CENTRAL SYSTEM did not converge for energy
   **   ~~~   ** Check values should be zero. Most Recent values listed first.
   **   ~~~   ** Demand-to-Supply interface energy check value iteration history trace: 3407.017663,3407.017663,3407.017664,3407.017664,3407.017664,3407.017664,3407.017665,3407.017665,3407.017665,3407.017665,
   **   ~~~   ** Supply-to-demand interface deck 1 energy check value iteration history trace: 1816.867153,1816.867153,1816.867153,1816.867153,1816.867153,1816.867154,1816.867154,1816.867154,1816.867154,1816.867154,
   ** Warning ** SimHVAC: Maximum iterations (20) exceeded for all HVAC loops, at ANNUAL, 11/03 06:30 - 06:38
   **   ~~~   ** The solution for one or more of the Air Loop HVAC systems did not appear to converge
   **   ~~~   ** Air System Named = CENTRAL SYSTEM did not converge for mass flow rate
   **   ~~~   ** Check values should be zero. Most Recent values listed first.
   **   ~~~   ** Demand-to-Supply interface mass flow rate check value iteration history trace: 5.566043E-002,5.566043E-002,5.566043E-002,5.566043E-002,5.566043E-002,5.566043E-002,5.566043E-002,5.566043E-002,5.566043E-002,5.566043E-002,
   **   ~~~   ** Supply-to-demand interface deck 1 mass flow rate check value iteration history trace: 5.566043E-002,5.566043E-002,5.566043E-002,5.566043E-002,5.566043E-002,5.566043E-002,5.566043E-002,5.566043E-002,5.566043E-002,5.566043E-002,
   **   ~~~   ** Air System Named = CENTRAL SYSTEM did not converge for energy
   **   ~~~   ** Check values should be zero. Most Recent values listed first.
   **   ~~~   ** Demand-to-Supply interface energy check value iteration history trace: 1102.166019,1102.166019,1102.166019,1102.166019,1102.166019,1102.166019,1102.166019,1102.166019,1102.166018,1102.166018,
   **   ~~~   ** Supply-to-demand interface deck 1 energy check value iteration history trace: 1951.135918,1951.135917,1951.135917,1951.135917,1951.135917,1951.135917,1951.135917,1951.135917,1951.135917,1951.135917,
   ** Warning ** SimHVAC: Maximum iterations (20) exceeded for all HVAC loops, at ANNUAL, 11/03 10:45 - 11:00
   **   ~~~   ** The solution for one or more of the Air Loop HVAC systems did not appear to converge
   **   ~~~   ** Air System Named = CENTRAL SYSTEM did not converge for mass flow rate
   **   ~~~   ** Check values should be zero. Most Recent values listed first.
   **   ~~~   ** Demand-to-Supply interface mass flow rate check value iteration history trace: 5.102680E-002,5.102680E-002,5.102680E-002,5.102680E-002,5.102680E-002,5.102680E-002,5.102680E-002,5.102680E-002,5.102680E-002,5.102680E-002,
   **   ~~~   ** Supply-to-demand interface deck 1 mass flow rate check value iteration history trace: 5.102680E-002,5.102680E-002,5.102680E-002,5.102680E-002,5.102680E-002,5.102680E-002,5.102680E-002,5.102680E-002,5.102680E-002,5.102680E-002,
   **   ~~~   ** Air System Named = CENTRAL SYSTEM did not converge for energy
   **   ~~~   ** Check values should be zero. Most Recent values listed first.
   **   ~~~   ** Demand-to-Supply interface energy check value iteration history trace: 1011.159500,1011.159500,1011.159500,1011.159500,1011.159499,1011.159499,1011.159499,1011.159499,1011.159499,1011.159499,
   **   ~~~   ** Supply-to-demand interface deck 1 energy check value iteration history trace: 1788.799426,1788.799426,1788.799426,1788.799426,1788.799426,1788.799425,1788.799425,1788.799425,1788.799425,1788.799425,
   ** Warning ** SimHVAC: Maximum iterations (20) exceeded for all HVAC loops, at ANNUAL, 11/06 19:38 - 19:41
   **   ~~~   ** The solution for one or more of the Air Loop HVAC systems did not appear to converge
   **   ~~~   ** Air System Named = CENTRAL SYSTEM did not converge for mass flow rate
   **   ~~~   ** Check values should be zero. Most Recent values listed first.
   **   ~~~   ** Demand-to-Supply interface mass flow rate check value iteration history trace: 3.347186E-002,3.347186E-002,3.347186E-002,3.347186E-002,3.347186E-002,3.347186E-002,3.347186E-002,3.347186E-002,3.347186E-002,3.347186E-002,
   **   ~~~   ** Supply-to-demand interface deck 1 mass flow rate check value iteration history trace: 3.347186E-002,3.347186E-002,3.347186E-002,3.347186E-002,3.347186E-002,3.347186E-002,3.347186E-002,3.347186E-002,3.347186E-002,3.347186E-002,
   **   ~~~   ** Air System Named = CENTRAL SYSTEM did not converge for energy
   **   ~~~   ** Check values should be zero. Most Recent values listed first.
   **   ~~~   ** Demand-to-Supply interface energy check value iteration history trace: 790.928978,790.928978,790.928978,790.928978,790.928978,790.928978,790.928978,790.928978,790.928978,790.928978,
   **   ~~~   ** Supply-to-demand interface deck 1 energy check value iteration history trace: 287.240028,287.240028,287.240028,287.240028,287.240028,287.240028,287.240028,287.240028,287.240028,287.240028,
   ************* Simulation Error Summary *************
   ** Warning ** The following Report Variables were requested but not generated -- check.rdd file
   **   ~~~   ** Either the IDF did not contain these elements, the variable name is misspelled,
   **   ~~~   ** or the requested variable is an advanced output which requires Output : Diagnostics, DisplayAdvancedReportVariables;
   ************* Key=*, VarName=BASEBOARD TOTAL HEATING ENERGY, Frequency=
   ************* Key=*, VarName=WATER HEATER NATURALGAS ENERGY, Frequency=
   ************* Key=*, VarName=COOLING COIL TOTAL HEATING ENERGY, Frequency=
   ************* There are 34 unused schedules in input.
   ************* There are 388 unused week schedules in input.
   ************* There are 396 unused day schedules in input.
   ************* Use Output:Diagnostics,DisplayUnusedSchedules; to see them.
   *************
   ************* ===== Recurring Error Summary =====
   ************* The following recurring error messages occurred.
   *************
   *************  ** Warning ** "TOTAL HOT WATER LOAD" - Target water temperature should be less than or equal to the hot water temperature error continues...
   *************  **   ~~~   **   This error occurred 152901 total times;
   *************  **   ~~~   **   during Warmup 0 times;
   *************  **   ~~~   **   during Sizing 0 times.
   *************  **   ~~~   **   Max=9.114645  Min=1.114792E-003
   *************
   *************  ** Warning ** SimHVAC: Exceeding Maximum iterations for all HVAC loops, during ANNUAL continues
   *************  **   ~~~   **   This error occurred 10 total times;
   *************  **   ~~~   **   during Warmup 0 times;
   *************  **   ~~~   **   during Sizing 0 times.
   *************
   *************
   ************* ===== Final Error Summary =====
   ************* The following error categories occurred.  Consider correcting or noting.
   ************* Nominally Unused Constructions
   ************* ..The nominally unused constructions warning is provided to alert you to potential conditions that can cause
   ************* ..extra time during simulation. Each construction is calculated by the algorithm indicated in the HeatBalanceAlgorithm
   ************* ..object. You may remove the constructions indicated (when you use the DisplayExtraWarnings option).
   *************
   ************* EnergyPlus Warmup Error Summary. During Warmup: 1 Warning; 0 Severe Errors.
   ************* EnergyPlus Sizing Error Summary. During Sizing: 4 Warning; 0 Severe Errors.
   ************* EnergyPlus Completed Successfully-- 152942 Warning; 0 Severe Errors; Elapsed Time=00hr 01min 46.35sec
