Program Version,EnergyPlus, Version 22.2.0-c249759bad, YMD=2023.09.01 14:50,
   ************* Beginning Zone Sizing Calculations
   ** Warning ** ProcessScheduleInput: Schedule:Constant="ALWAYS ON DISCRETE", Schedule Type Limits Name="ONOFF" not found -- will not be validated
   ** Warning ** Foundation:Kiva="KIVA FOUNDATION", no Interior Horizontal Insulation Material Name defined
   **   ~~~   ** Interior Horizontal Insulation Depth will not be used.
   ** Warning ** CheckUsedConstructions: There are 15 nominally unused constructions in input.
   **   ~~~   ** Each Unused construction is shown.
   ************* Construction=INTERIOR FLOOR
   ************* Construction=INTERIOR WINDOW
   ************* Construction=EXTERIOR DOOR
   ************* Construction=INTERIOR DOOR
   ************* Construction=GABLE CONSTRUCTION
   ************* Construction=CRAWL_FLOOR
   ************* Construction=INSULATED PIPE
   ************* Construction=PLAIN PIPE
   ************* Construction=TDD PIPE
   ************* Construction=TDD DOME
   ************* Construction=TDD DIFFUSER
   ************* Construction=CRAWL WALL
   ************* Construction=CEILING-FLOOR-LAYER
   ************* Construction=SLAB CONSTRUCTION W FULL R10 INSULATION
   ************* Construction=SLAB CONSTRUCTION W FULL R5 INSULATION
   ** Warning ** GetDXCoils: Coil:Heating:DX:SingleSpeed="DX_HEATING_COIL" curve values
   **   ~~~   ** ... Defrost Energy Input Ratio Function of Temperature Curve Name = DEFROSTEIR output is not equal to 1.0 (+ or - 10%) at rated conditions.
   **   ~~~   ** ... Curve output at rated conditions = 0.152
   ************* Beginning System Sizing Calculations
   ************* Beginning Plant Sizing Calculations
   ** Warning ** SizeDXCoil Coil:Cooling:DX:SingleSpeed DX_COOLING_COIL
   **   ~~~   ** ...Gross Rated Total Cooling Capacity [W] will be limited by the maximum rated volume flow per rated total capacity ratio.
   **   ~~~   ** ...DX coil volume flow rate ( m3/s ) = 0.417462
   **   ~~~   ** ...Requested capacity ( W ) = 6815.795
   **   ~~~   ** ...Requested flow/capacity ratio ( m3/s/W ) = 6.124E-005
   **   ~~~   ** ...Maximum flow/capacity ratio ( m3/s/W ) = 6.041E-005
   **   ~~~   ** ...Adjusted capacity ( W ) = 6910.478
   ** Warning ** Coil:WaterHeating:AirToWaterHeatPump:Wrapped "HEAT PUMP WATER HEATER EVAPORATOR": Rated air volume flow rate per watt of rated total water heating capacity is out of range
   **   ~~~   ** Min Rated Vol Flow Per Watt=[4.027E-005], Rated Vol Flow Per Watt=[1.386E-004], Max Rated Vol Flow Per Watt=[8.056E-005]. See Input-Output Reference Manual for valid range.
   ** Warning ** Water heater = WATER HEATER TANK:  Recovery Efficiency and Energy Factor could not be calculated during the test for standard ratings
   **   ~~~   ** Setpoint was never recovered and/or heater never turned on
   ** Warning ** Check input. Pump nominal power or motor efficiency is set to 0, for pump=MAINS PRESSURE
   ** Warning ** Output:Meter: invalid Key Name="ELECTRIC_RANGE:INTERIOREQUIPMENT:ELECTRICITY" - not found.
   ** Warning ** Output:Meter: invalid Key Name="ELECTRIC_DRYER:INTERIOREQUIPMENT:ELECTRICITY" - not found.
   ** Warning ** Output:Meter: invalid Key Name="HEATRECOVERY:ELECTRICITY" - not found.
   ** Warning ** Output:Meter: invalid Key Name="HEATING:NATURALGAS" - not found.
   ** Warning ** Output:Meter: invalid Key Name="WATERSYSTEMS:NATURALGAS" - not found.
   ** Warning ** Output:Meter: invalid Key Name="PROPANE:FACILITY" - not found.
   ** Warning ** Output:Meter: invalid Key Name="HEATING:PROPANE" - not found.
   ************* Testing Individual Branch Integrity
   ************* All Branches passed integrity testing
   ************* Testing Individual Supply Air Path Integrity
   ************* All Supply Air Paths passed integrity testing
   ************* Testing Individual Return Air Path Integrity
   ************* All Return Air Paths passed integrity testing
   ************* No node connection errors were found.
   ************* Beginning Simulation
   ** Warning ** AirflowNetwork::Solver::validate_distribution: Heat pump water heater is simulated along with an AirflowNetwork but is not included in the AirflowNetwork.
   ** Warning ** CalcEquipmentFlowRates: "TOTAL HOT WATER LOAD" - Target water temperature is greater than the hot water temperature by (1.65 C)
   **   ~~~   **  Environment=EXTREME_WINTER, at Simulation time=01/08 06:00 - 06:15
   **   ~~~   ** ...target water temperature     = 53.33 C
   **   ~~~   ** ...hot water temperature        = 51.68 C
   **   ~~~   ** ...Target water temperature should be less than or equal to the hot water temperature. Verify temperature setpoints and schedules.
   ** Warning ** SimHVAC: Maximum iterations (20) exceeded for all HVAC loops, at ANNUAL, 01/24 20:45 - 21:00
   **   ~~~   ** The solution for one or more of the Air Loop HVAC systems did not appear to converge
   **   ~~~   ** Air System Named = CENTRAL SYSTEM did not converge for mass flow rate
   **   ~~~   ** Check values should be zero. Most Recent values listed first.
   **   ~~~   ** Demand-to-Supply interface mass flow rate check value iteration history trace: 9.911899E-002,9.911899E-002,9.911899E-002,9.911899E-002,9.911899E-002,9.911899E-002,9.911899E-002,9.911899E-002,9.911899E-002,9.911899E-002,
   **   ~~~   ** Supply-to-demand interface deck 1 mass flow rate check value iteration history trace: 9.911899E-002,9.911899E-002,9.911899E-002,9.911899E-002,9.911899E-002,9.911899E-002,9.911899E-002,9.911899E-002,9.911899E-002,9.911899E-002,
   **   ~~~   ** Air System Named = CENTRAL SYSTEM did not converge for energy
   **   ~~~   ** Check values should be zero. Most Recent values listed first.
   **   ~~~   ** Demand-to-Supply interface energy check value iteration history trace: 1922.853612,1922.853612,1922.853612,1922.853611,1922.853611,1922.853611,1922.853611,1922.853611,1922.853611,1922.853611,
   **   ~~~   ** Supply-to-demand interface deck 1 energy check value iteration history trace: 2958.206043,2958.206043,2958.206043,2958.206043,2958.206043,2958.206043,2958.206042,2958.206042,2958.206042,2958.206042,
   ** Warning ** SimHVAC: Maximum iterations (20) exceeded for all HVAC loops, at ANNUAL, 02/11 10:00 - 10:08
   **   ~~~   ** The solution for one or more of the Air Loop HVAC systems did not appear to converge
   **   ~~~   ** Air System Named = CENTRAL SYSTEM did not converge for mass flow rate
   **   ~~~   ** Check values should be zero. Most Recent values listed first.
   **   ~~~   ** Demand-to-Supply interface mass flow rate check value iteration history trace: 5.411469E-002,5.411469E-002,5.411469E-002,5.411469E-002,5.411469E-002,5.411469E-002,5.411469E-002,5.411469E-002,5.411469E-002,5.411469E-002,
   **   ~~~   ** Supply-to-demand interface deck 1 mass flow rate check value iteration history trace: 5.411469E-002,5.411469E-002,5.411469E-002,5.411469E-002,5.411469E-002,5.411469E-002,5.411469E-002,5.411469E-002,5.411469E-002,5.411469E-002,
   **   ~~~   ** Air System Named = CENTRAL SYSTEM did not converge for energy
   **   ~~~   ** Check values should be zero. Most Recent values listed first.
   **   ~~~   ** Demand-to-Supply interface energy check value iteration history trace: 1072.776270,1072.776270,1072.776270,1072.776270,1072.776270,1072.776270,1072.776270,1072.776270,1072.776270,1072.776270,
   **   ~~~   ** Supply-to-demand interface deck 1 energy check value iteration history trace: 2003.779976,2003.779976,2003.779976,2003.779976,2003.779976,2003.779976,2003.779975,2003.779975,2003.779975,2003.779975,
   ** Warning ** SimHVAC: Maximum iterations (20) exceeded for all HVAC loops, at ANNUAL, 02/11 18:45 - 19:00
   **   ~~~   ** The solution for one or more of the Air Loop HVAC systems did not appear to converge
   **   ~~~   ** Air System Named = CENTRAL SYSTEM did not converge for mass flow rate
   **   ~~~   ** Check values should be zero. Most Recent values listed first.
   **   ~~~   ** Demand-to-Supply interface mass flow rate check value iteration history trace: 7.679889E-002,7.679889E-002,7.679889E-002,7.679889E-002,7.679889E-002,7.679889E-002,7.679889E-002,7.679889E-002,7.679889E-002,7.679889E-002,
   **   ~~~   ** Supply-to-demand interface deck 1 mass flow rate check value iteration history trace: 7.679889E-002,7.679889E-002,7.679889E-002,7.679889E-002,7.679889E-002,7.679889E-002,7.679889E-002,7.679889E-002,7.679889E-002,7.679889E-002,
   **   ~~~   ** Air System Named = CENTRAL SYSTEM did not converge for energy
   **   ~~~   ** Check values should be zero. Most Recent values listed first.
   **   ~~~   ** Demand-to-Supply interface energy check value iteration history trace: 1523.195668,1523.195668,1523.195668,1523.195668,1523.195668,1523.195668,1523.195668,1523.195668,1523.195667,1523.195667,
   **   ~~~   ** Supply-to-demand interface deck 1 energy check value iteration history trace: 2637.930333,2637.930332,2637.930332,2637.930332,2637.930332,2637.930332,2637.930332,2637.930332,2637.930332,2637.930332,
   ** Warning ** SimHVAC: Maximum iterations (20) exceeded for all HVAC loops, at ANNUAL, 03/04 10:53 - 11:00
   **   ~~~   ** The solution for one or more of the Air Loop HVAC systems did not appear to converge
   **   ~~~   ** Air System Named = CENTRAL SYSTEM did not converge for mass flow rate
   **   ~~~   ** Check values should be zero. Most Recent values listed first.
   **   ~~~   ** Demand-to-Supply interface mass flow rate check value iteration history trace: 6.639284E-002,6.639284E-002,6.639284E-002,6.639284E-002,6.639284E-002,6.639284E-002,6.639284E-002,6.639284E-002,6.639284E-002,6.639284E-002,
   **   ~~~   ** Supply-to-demand interface deck 1 mass flow rate check value iteration history trace: 6.639284E-002,6.639284E-002,6.639284E-002,6.639284E-002,6.639284E-002,6.639284E-002,6.639284E-002,6.639284E-002,6.639284E-002,6.639284E-002,
   **   ~~~   ** Air System Named = CENTRAL SYSTEM did not converge for energy
   **   ~~~   ** Check values should be zero. Most Recent values listed first.
   **   ~~~   ** Demand-to-Supply interface energy check value iteration history trace: 1303.151438,1303.151438,1303.151438,1303.151437,1303.151437,1303.151437,1303.151437,1303.151437,1303.151437,1303.151437,
   **   ~~~   ** Supply-to-demand interface deck 1 energy check value iteration history trace: 2301.462247,2301.462247,2301.462247,2301.462247,2301.462247,2301.462247,2301.462247,2301.462246,2301.462246,2301.462246,
   ** Warning ** SimHVAC: Maximum iterations (20) exceeded for all HVAC loops, at ANNUAL, 03/11 19:00 - 19:15
   **   ~~~   ** The solution for one or more of the Air Loop HVAC systems did not appear to converge
   **   ~~~   ** Air System Named = CENTRAL SYSTEM did not converge for mass flow rate
   **   ~~~   ** Check values should be zero. Most Recent values listed first.
   **   ~~~   ** Demand-to-Supply interface mass flow rate check value iteration history trace: 9.962738E-002,9.962738E-002,9.962738E-002,9.962738E-002,9.962738E-002,9.962738E-002,9.962738E-002,9.962738E-002,9.962738E-002,9.962738E-002,
   **   ~~~   ** Supply-to-demand interface deck 1 mass flow rate check value iteration history trace: 9.962738E-002,9.962738E-002,9.962738E-002,9.962738E-002,9.962738E-002,9.962738E-002,9.962738E-002,9.962738E-002,9.962738E-002,9.962738E-002,
   **   ~~~   ** Air System Named = CENTRAL SYSTEM did not converge for energy
   **   ~~~   ** Check values should be zero. Most Recent values listed first.
   **   ~~~   ** Demand-to-Supply interface energy check value iteration history trace: 1973.868382,1973.868382,1973.868382,1973.868382,1973.868382,1973.868382,1973.868381,1973.868381,1973.868381,1973.868381,
   **   ~~~   ** Supply-to-demand interface deck 1 energy check value iteration history trace: 3049.174026,3049.174026,3049.174026,3049.174025,3049.174025,3049.174025,3049.174025,3049.174025,3049.174024,3049.174024,
   ** Warning ** SimHVAC: Maximum iterations (20) exceeded for all HVAC loops, at ANNUAL, 03/21 07:15 - 07:30
   **   ~~~   ** The solution for one or more of the Air Loop HVAC systems did not appear to converge
   **   ~~~   ** Air System Named = CENTRAL SYSTEM did not converge for mass flow rate
   **   ~~~   ** Check values should be zero. Most Recent values listed first.
   **   ~~~   ** Demand-to-Supply interface mass flow rate check value iteration history trace: 7.252051E-002,7.252051E-002,7.252051E-002,7.252051E-002,7.252051E-002,7.252051E-002,7.252051E-002,7.252051E-002,7.252051E-002,7.252051E-002,
   **   ~~~   ** Supply-to-demand interface deck 1 mass flow rate check value iteration history trace: 7.252051E-002,7.252051E-002,7.252051E-002,7.252051E-002,7.252051E-002,7.252051E-002,7.252051E-002,7.252051E-002,7.252051E-002,7.252051E-002,
   **   ~~~   ** Air System Named = CENTRAL SYSTEM did not converge for energy
   **   ~~~   ** Check values should be zero. Most Recent values listed first.
   **   ~~~   ** Demand-to-Supply interface energy check value iteration history trace: 1434.155774,1434.155774,1434.155774,1434.155774,1434.155774,1434.155774,1434.155774,1434.155774,1434.155774,1434.155774,
   **   ~~~   ** Supply-to-demand interface deck 1 energy check value iteration history trace: 2493.540421,2493.540421,2493.540421,2493.540421,2493.540421,2493.540421,2493.540420,2493.540420,2493.540420,2493.540420,
   ** Warning ** SimHVAC: Maximum iterations (20) exceeded for all HVAC loops, at ANNUAL, 11/05 11:23 - 11:30
   **   ~~~   ** The solution for one or more of the Air Loop HVAC systems did not appear to converge
   **   ~~~   ** Air System Named = CENTRAL SYSTEM did not converge for mass flow rate
   **   ~~~   ** Check values should be zero. Most Recent values listed first.
   **   ~~~   ** Demand-to-Supply interface mass flow rate check value iteration history trace: 7.342302E-002,7.342302E-002,7.342302E-002,7.342302E-002,7.342302E-002,7.342302E-002,7.342302E-002,7.342302E-002,7.342302E-002,7.342302E-002,
   **   ~~~   ** Supply-to-demand interface deck 1 mass flow rate check value iteration history trace: 7.342302E-002,7.342302E-002,7.342302E-002,7.342302E-002,7.342302E-002,7.342302E-002,7.342302E-002,7.342302E-002,7.342302E-002,7.342302E-002,
   **   ~~~   ** Air System Named = CENTRAL SYSTEM did not converge for energy
   **   ~~~   ** Check values should be zero. Most Recent values listed first.
   **   ~~~   ** Demand-to-Supply interface energy check value iteration history trace: 1447.168476,1447.168476,1447.168475,1447.168475,1447.168475,1447.168475,1447.168475,1447.168475,1447.168475,1447.168475,
   **   ~~~   ** Supply-to-demand interface deck 1 energy check value iteration history trace: 2478.675530,2478.675530,2478.675530,2478.675530,2478.675530,2478.675529,2478.675529,2478.675529,2478.675529,2478.675529,
   ** Warning ** SimHVAC: Maximum iterations (20) exceeded for all HVAC loops, at ANNUAL, 12/06 15:00 - 15:15
   **   ~~~   ** The solution for one or more of the Air Loop HVAC systems did not appear to converge
   **   ~~~   ** Air System Named = CENTRAL SYSTEM did not converge for mass flow rate
   **   ~~~   ** Check values should be zero. Most Recent values listed first.
   **   ~~~   ** Demand-to-Supply interface mass flow rate check value iteration history trace: 0.100536,0.100536,0.100536,0.100536,0.100536,0.100536,0.100536,0.100536,0.100536,0.100536,
   **   ~~~   ** Supply-to-demand interface deck 1 mass flow rate check value iteration history trace: 0.100536,0.100536,0.100536,0.100536,0.100536,0.100536,0.100536,0.100536,0.100536,0.100536,
   **   ~~~   ** Air System Named = CENTRAL SYSTEM did not converge for energy
   **   ~~~   ** Check values should be zero. Most Recent values listed first.
   **   ~~~   ** Demand-to-Supply interface energy check value iteration history trace: 1985.527805,1985.527805,1985.527805,1985.527804,1985.527804,1985.527804,1985.527804,1985.527804,1985.527804,1985.527804,
   **   ~~~   ** Supply-to-demand interface deck 1 energy check value iteration history trace: 3031.010780,3031.010780,3031.010780,3031.010780,3031.010779,3031.010779,3031.010779,3031.010779,3031.010779,3031.010778,
   ************* Simulation Error Summary *************
   ** Warning ** The following Report Variables were requested but not generated -- check.rdd file
   **   ~~~   ** Either the IDF did not contain these elements, the variable name is misspelled,
   **   ~~~   ** or the requested variable is an advanced output which requires Output : Diagnostics, DisplayAdvancedReportVariables;
   ************* Key=*, VarName=BASEBOARD TOTAL HEATING ENERGY, Frequency=
   ************* Key=*, VarName=WATER HEATER NATURALGAS ENERGY, Frequency=
   ************* Key=*, VarName=COOLING COIL TOTAL HEATING ENERGY, Frequency=
   ************* There are 34 unused schedules in input.
   ************* There are 388 unused week schedules in input.
   ************* There are 396 unused day schedules in input.
   ************* Use Output:Diagnostics,DisplayUnusedSchedules; to see them.
   *************
   ************* ===== Recurring Error Summary =====
   ************* The following recurring error messages occurred.
   *************
   *************  ** Warning ** "TOTAL HOT WATER LOAD" - Target water temperature should be less than or equal to the hot water temperature error continues...
   *************  **   ~~~   **   This error occurred 104143 total times;
   *************  **   ~~~   **   during Warmup 0 times;
   *************  **   ~~~   **   during Sizing 0 times.
   *************  **   ~~~   **   Max=9.365976  Min=7.569410E-005
   *************
   *************
   ************* ===== Final Error Summary =====
   ************* The following error categories occurred.  Consider correcting or noting.
   ************* Nominally Unused Constructions
   ************* ..The nominally unused constructions warning is provided to alert you to potential conditions that can cause
   ************* ..extra time during simulation. Each construction is calculated by the algorithm indicated in the HeatBalanceAlgorithm
   ************* ..object. You may remove the constructions indicated (when you use the DisplayExtraWarnings option).
   *************
   ************* EnergyPlus Warmup Error Summary. During Warmup: 1 Warning; 0 Severe Errors.
   ************* EnergyPlus Sizing Error Summary. During Sizing: 4 Warning; 0 Severe Errors.
   ************* EnergyPlus Completed Successfully-- 104169 Warning; 0 Severe Errors; Elapsed Time=00hr 05min 48.07sec
