Program Version,EnergyPlus, Version 22.2.0-c249759bad, YMD=2023.09.01 19:56,
   ************* Beginning Zone Sizing Calculations
   ** Warning ** ProcessScheduleInput: Schedule:Constant="ALWAYS ON DISCRETE", Schedule Type Limits Name="ONOFF" not found -- will not be validated
   ** Warning ** Foundation:Kiva="KIVA FOUNDATION", no Interior Horizontal Insulation Material Name defined
   **   ~~~   ** Interior Horizontal Insulation Depth will not be used.
   ** Warning ** CheckUsedConstructions: There are 15 nominally unused constructions in input.
   **   ~~~   ** Each Unused construction is shown.
   ************* Construction=INTERIOR FLOOR
   ************* Construction=INTERIOR WINDOW
   ************* Construction=EXTERIOR DOOR
   ************* Construction=INTERIOR DOOR
   ************* Construction=GABLE CONSTRUCTION
   ************* Construction=CRAWL_FLOOR
   ************* Construction=INSULATED PIPE
   ************* Construction=PLAIN PIPE
   ************* Construction=TDD PIPE
   ************* Construction=TDD DOME
   ************* Construction=TDD DIFFUSER
   ************* Construction=CRAWL WALL
   ************* Construction=CEILING-FLOOR-LAYER
   ************* Construction=SLAB CONSTRUCTION W FULL R10 INSULATION
   ************* Construction=SLAB CONSTRUCTION W FULL R5 INSULATION
   ** Warning ** GetDXCoils: Coil:Heating:DX:SingleSpeed="DX_HEATING_COIL" curve values
   **   ~~~   ** ... Defrost Energy Input Ratio Function of Temperature Curve Name = DEFROSTEIR output is not equal to 1.0 (+ or - 10%) at rated conditions.
   **   ~~~   ** ... Curve output at rated conditions = 0.152
   ************* Beginning System Sizing Calculations
   ************* Beginning Plant Sizing Calculations
   ** Warning ** SizeDXCoil Coil:Cooling:DX:SingleSpeed DX_COOLING_COIL
   **   ~~~   ** ...Gross Rated Total Cooling Capacity [W] will be limited by the maximum rated volume flow per rated total capacity ratio.
   **   ~~~   ** ...DX coil volume flow rate ( m3/s ) = 0.488699
   **   ~~~   ** ...Requested capacity ( W ) = 5951.872
   **   ~~~   ** ...Requested flow/capacity ratio ( m3/s/W ) = 8.210E-005
   **   ~~~   ** ...Maximum flow/capacity ratio ( m3/s/W ) = 6.041E-005
   **   ~~~   ** ...Adjusted capacity ( W ) = 8089.712
   ** Warning ** Coil:WaterHeating:AirToWaterHeatPump:Wrapped "HEAT PUMP WATER HEATER EVAPORATOR": Rated air volume flow rate per watt of rated total water heating capacity is out of range
   **   ~~~   ** Min Rated Vol Flow Per Watt=[4.027E-005], Rated Vol Flow Per Watt=[1.510E-004], Max Rated Vol Flow Per Watt=[8.056E-005]. See Input-Output Reference Manual for valid range.
   ************* SizeFan: : Potential issue with equipment sizing for Fan:OnOff HEAT PUMP WATER HEATER FAN
   **   ~~~   ** User-Specified Maximum Flow Rate [m3/s] = 0.22653
   **   ~~~   ** differs from Design Size Maximum Flow Rate [m3/s] = 7.55250E-002
   **   ~~~   ** This may, or may not, indicate mismatched component sizes.
   **   ~~~   ** Verify that the value entered is intended and is consistent with other components.
   ** Warning ** Water heater = WATER HEATER TANK:  Recovery Efficiency and Energy Factor could not be calculated during the test for standard ratings
   **   ~~~   ** Setpoint was never recovered and/or heater never turned on
   ** Warning ** Check input. Pump nominal power or motor efficiency is set to 0, for pump=MAINS PRESSURE
   ** Warning ** Output:Meter: invalid Key Name="ELECTRIC_RANGE:INTERIOREQUIPMENT:ELECTRICITY" - not found.
   ** Warning ** Output:Meter: invalid Key Name="ELECTRIC_DRYER:INTERIOREQUIPMENT:ELECTRICITY" - not found.
   ** Warning ** Output:Meter: invalid Key Name="HEATRECOVERY:ELECTRICITY" - not found.
   ** Warning ** Output:Meter: invalid Key Name="HEATING:NATURALGAS" - not found.
   ** Warning ** Output:Meter: invalid Key Name="WATERSYSTEMS:NATURALGAS" - not found.
   ** Warning ** Output:Meter: invalid Key Name="PROPANE:FACILITY" - not found.
   ** Warning ** Output:Meter: invalid Key Name="HEATING:PROPANE" - not found.
   ************* Testing Individual Branch Integrity
   ************* All Branches passed integrity testing
   ************* Testing Individual Supply Air Path Integrity
   ************* All Supply Air Paths passed integrity testing
   ************* Testing Individual Return Air Path Integrity
   ************* All Return Air Paths passed integrity testing
   ************* No node connection errors were found.
   ************* Beginning Simulation
   ** Warning ** AirflowNetwork::Solver::validate_distribution: Heat pump water heater is simulated along with an AirflowNetwork but is not included in the AirflowNetwork.
   ** Warning ** CalcEquipmentFlowRates: "TOTAL HOT WATER LOAD" - Target water temperature is greater than the hot water temperature by (5.95 C)
   **   ~~~   **  Environment=EXTREME_WINTER, at Simulation time=01/01 06:00 - 06:15
   **   ~~~   ** ...target water temperature     = 53.33 C
   **   ~~~   ** ...hot water temperature        = 47.38 C
   **   ~~~   ** ...Target water temperature should be less than or equal to the hot water temperature. Verify temperature setpoints and schedules.
   ** Warning ** SimHVAC: Maximum iterations (20) exceeded for all HVAC loops, at ANNUAL, 01/29 14:00 - 14:15
   **   ~~~   ** The solution for one or more of the Air Loop HVAC systems did not appear to converge
   **   ~~~   ** Air System Named = CENTRAL SYSTEM did not converge for mass flow rate
   **   ~~~   ** Check values should be zero. Most Recent values listed first.
   **   ~~~   ** Demand-to-Supply interface mass flow rate check value iteration history trace: 6.706486E-002,6.706486E-002,6.706486E-002,6.706486E-002,6.706486E-002,6.706486E-002,6.706486E-002,6.706486E-002,6.706486E-002,6.706486E-002,
   **   ~~~   ** Supply-to-demand interface deck 1 mass flow rate check value iteration history trace: 6.706486E-002,6.706486E-002,6.706486E-002,6.706486E-002,6.706486E-002,6.706486E-002,6.706486E-002,6.706486E-002,6.706486E-002,6.706486E-002,
   **   ~~~   ** Air System Named = CENTRAL SYSTEM did not converge for energy
   **   ~~~   ** Check values should be zero. Most Recent values listed first.
   **   ~~~   ** Demand-to-Supply interface energy check value iteration history trace: 1325.214008,1325.214008,1325.214008,1325.214008,1325.214007,1325.214007,1325.214007,1325.214007,1325.214007,1325.214007,
   **   ~~~   ** Supply-to-demand interface deck 1 energy check value iteration history trace: 2103.107330,2103.107330,2103.107330,2103.107329,2103.107329,2103.107329,2103.107329,2103.107329,2103.107329,2103.107329,
   ** Warning ** SimHVAC: Maximum iterations (20) exceeded for all HVAC loops, at ANNUAL, 02/21 13:45 - 14:00
   **   ~~~   ** The solution for one or more of the Air Loop HVAC systems did not appear to converge
   **   ~~~   ** Air System Named = CENTRAL SYSTEM did not converge for mass flow rate
   **   ~~~   ** Check values should be zero. Most Recent values listed first.
   **   ~~~   ** Demand-to-Supply interface mass flow rate check value iteration history trace: 8.283402E-002,8.283402E-002,8.283402E-002,8.283402E-002,8.283402E-002,8.283402E-002,8.283402E-002,8.283402E-002,8.283402E-002,8.283402E-002,
   **   ~~~   ** Supply-to-demand interface deck 1 mass flow rate check value iteration history trace: 8.283402E-002,8.283402E-002,8.283402E-002,8.283402E-002,8.283402E-002,8.283402E-002,8.283402E-002,8.283402E-002,8.283402E-002,8.283402E-002,
   **   ~~~   ** Air System Named = CENTRAL SYSTEM did not converge for energy
   **   ~~~   ** Check values should be zero. Most Recent values listed first.
   **   ~~~   ** Demand-to-Supply interface energy check value iteration history trace: 1635.683834,1635.683834,1635.683834,1635.683834,1635.683833,1635.683833,1635.683833,1635.683833,1635.683833,1635.683833,
   **   ~~~   ** Supply-to-demand interface deck 1 energy check value iteration history trace: 2579.916777,2579.916777,2579.916777,2579.916777,2579.916776,2579.916776,2579.916776,2579.916776,2579.916776,2579.916776,
   ** Warning ** SimHVAC: Maximum iterations (20) exceeded for all HVAC loops, at ANNUAL, 02/26 16:33 - 16:35
   **   ~~~   ** The solution for one or more of the Air Loop HVAC systems did not appear to converge
   **   ~~~   ** Air System Named = CENTRAL SYSTEM did not converge for mass flow rate
   **   ~~~   ** Check values should be zero. Most Recent values listed first.
   **   ~~~   ** Demand-to-Supply interface mass flow rate check value iteration history trace: 7.178315E-002,7.178315E-002,7.178315E-002,7.178315E-002,7.178315E-002,7.178315E-002,7.178315E-002,7.178315E-002,7.178315E-002,7.178315E-002,
   **   ~~~   ** Supply-to-demand interface deck 1 mass flow rate check value iteration history trace: 7.178315E-002,7.178315E-002,7.178315E-002,7.178315E-002,7.178315E-002,7.178315E-002,7.178315E-002,7.178315E-002,7.178315E-002,7.178315E-002,
   **   ~~~   ** Air System Named = CENTRAL SYSTEM did not converge for energy
   **   ~~~   ** Check values should be zero. Most Recent values listed first.
   **   ~~~   ** Demand-to-Supply interface energy check value iteration history trace: 1417.002777,1417.002777,1417.002777,1417.002777,1417.002777,1417.002777,1417.002776,1417.002776,1417.002776,1417.002776,
   **   ~~~   ** Supply-to-demand interface deck 1 energy check value iteration history trace: 2217.603012,2217.603012,2217.603012,2217.603012,2217.603012,2217.603012,2217.603012,2217.603011,2217.603011,2217.603011,
   ** Warning ** SimHVAC: Maximum iterations (20) exceeded for all HVAC loops, at ANNUAL, 03/20 16:50 - 16:55
   **   ~~~   ** The solution for one or more of the Air Loop HVAC systems did not appear to converge
   **   ~~~   ** Air System Named = CENTRAL SYSTEM did not converge for mass flow rate
   **   ~~~   ** Check values should be zero. Most Recent values listed first.
   **   ~~~   ** Demand-to-Supply interface mass flow rate check value iteration history trace: 6.347427E-002,6.347427E-002,6.347427E-002,6.347427E-002,6.347427E-002,6.347427E-002,6.347427E-002,6.347427E-002,6.347427E-002,6.347427E-002,
   **   ~~~   ** Supply-to-demand interface deck 1 mass flow rate check value iteration history trace: 6.347427E-002,6.347427E-002,6.347427E-002,6.347427E-002,6.347427E-002,6.347427E-002,6.347427E-002,6.347427E-002,6.347427E-002,6.347427E-002,
   **   ~~~   ** Air System Named = CENTRAL SYSTEM did not converge for energy
   **   ~~~   ** Check values should be zero. Most Recent values listed first.
   **   ~~~   ** Demand-to-Supply interface energy check value iteration history trace: 1257.337447,1257.337447,1257.337447,1257.337447,1257.337447,1257.337447,1257.337447,1257.337447,1257.337447,1257.337447,
   **   ~~~   ** Supply-to-demand interface deck 1 energy check value iteration history trace: 2126.924823,2126.924823,2126.924823,2126.924823,2126.924823,2126.924823,2126.924823,2126.924823,2126.924823,2126.924823,
   ** Warning ** SimHVAC: Maximum iterations (20) exceeded for all HVAC loops, at ANNUAL, 03/26 13:00 - 13:15
   **   ~~~   ** The solution for one or more of the Air Loop HVAC systems did not appear to converge
   **   ~~~   ** Air System Named = CENTRAL SYSTEM did not converge for mass flow rate
   **   ~~~   ** Check values should be zero. Most Recent values listed first.
   **   ~~~   ** Demand-to-Supply interface mass flow rate check value iteration history trace: 6.843705E-002,6.843705E-002,6.843705E-002,6.843705E-002,6.843705E-002,6.843705E-002,6.843705E-002,6.843705E-002,6.843705E-002,6.843705E-002,
   **   ~~~   ** Supply-to-demand interface deck 1 mass flow rate check value iteration history trace: 6.843705E-002,6.843705E-002,6.843705E-002,6.843705E-002,6.843705E-002,6.843705E-002,6.843705E-002,6.843705E-002,6.843705E-002,6.843705E-002,
   **   ~~~   ** Air System Named = CENTRAL SYSTEM did not converge for energy
   **   ~~~   ** Check values should be zero. Most Recent values listed first.
   **   ~~~   ** Demand-to-Supply interface energy check value iteration history trace: 1356.204697,1356.204696,1356.204696,1356.204696,1356.204696,1356.204696,1356.204696,1356.204696,1356.204696,1356.204696,
   **   ~~~   ** Supply-to-demand interface deck 1 energy check value iteration history trace: 2263.630888,2263.630888,2263.630888,2263.630888,2263.630888,2263.630888,2263.630887,2263.630887,2263.630887,2263.630887,
   ** Warning ** SimHVAC: Maximum iterations (20) exceeded for all HVAC loops, at ANNUAL, 04/23 13:43 - 13:45
   **   ~~~   ** The solution for one or more of the Air Loop HVAC systems did not appear to converge
   **   ~~~   ** Air System Named = CENTRAL SYSTEM did not converge for mass flow rate
   **   ~~~   ** Check values should be zero. Most Recent values listed first.
   **   ~~~   ** Demand-to-Supply interface mass flow rate check value iteration history trace: 4.898120E-002,4.898120E-002,4.898120E-002,4.898120E-002,4.898120E-002,4.898120E-002,4.898120E-002,4.898120E-002,4.898120E-002,4.898120E-002,
   **   ~~~   ** Supply-to-demand interface deck 1 mass flow rate check value iteration history trace: 4.898120E-002,4.898120E-002,4.898120E-002,4.898120E-002,4.898120E-002,4.898120E-002,4.898120E-002,4.898120E-002,4.898120E-002,4.898120E-002,
   **   ~~~   ** Air System Named = CENTRAL SYSTEM did not converge for energy
   **   ~~~   ** Check values should be zero. Most Recent values listed first.
   **   ~~~   ** Demand-to-Supply interface energy check value iteration history trace: 964.342315,964.342315,964.342315,964.342315,964.342315,964.342315,964.342315,964.342315,964.342315,964.342315,
   **   ~~~   ** Supply-to-demand interface deck 1 energy check value iteration history trace: 1810.882988,1810.882988,1810.882988,1810.882988,1810.882988,1810.882988,1810.882988,1810.882988,1810.882988,1810.882987,
   ** Warning ** SimHVAC: Maximum iterations (20) exceeded for all HVAC loops, at ANNUAL, 04/25 09:17 - 09:19
   **   ~~~   ** The solution for one or more of the Air Loop HVAC systems did not appear to converge
   **   ~~~   ** Air System Named = CENTRAL SYSTEM did not converge for mass flow rate
   **   ~~~   ** Check values should be zero. Most Recent values listed first.
   **   ~~~   ** Demand-to-Supply interface mass flow rate check value iteration history trace: 4.856502E-002,4.856502E-002,4.856502E-002,4.856502E-002,4.856502E-002,4.856502E-002,4.856502E-002,4.856502E-002,4.856502E-002,4.856502E-002,
   **   ~~~   ** Supply-to-demand interface deck 1 mass flow rate check value iteration history trace: 4.856502E-002,4.856502E-002,4.856502E-002,4.856502E-002,4.856502E-002,4.856502E-002,4.856502E-002,4.856502E-002,4.856502E-002,4.856502E-002,
   **   ~~~   ** Air System Named = CENTRAL SYSTEM did not converge for energy
   **   ~~~   ** Check values should be zero. Most Recent values listed first.
   **   ~~~   ** Demand-to-Supply interface energy check value iteration history trace: 956.587727,956.587727,956.587726,956.587726,956.587726,956.587726,956.587726,956.587726,956.587726,956.587726,
   **   ~~~   ** Supply-to-demand interface deck 1 energy check value iteration history trace: 1821.977987,1821.977987,1821.977987,1821.977987,1821.977987,1821.977986,1821.977986,1821.977986,1821.977986,1821.977986,
   ** Warning ** SimHVAC: Maximum iterations (20) exceeded for all HVAC loops, at ANNUAL, 04/26 09:30 - 09:45
   **   ~~~   ** The solution for one or more of the Air Loop HVAC systems did not appear to converge
   **   ~~~   ** Air System Named = CENTRAL SYSTEM did not converge for mass flow rate
   **   ~~~   ** Check values should be zero. Most Recent values listed first.
   **   ~~~   ** Demand-to-Supply interface mass flow rate check value iteration history trace: 4.904359E-002,4.904359E-002,4.904359E-002,4.904359E-002,4.904359E-002,4.904359E-002,4.904359E-002,4.904359E-002,4.904359E-002,4.904359E-002,
   **   ~~~   ** Supply-to-demand interface deck 1 mass flow rate check value iteration history trace: 4.904359E-002,4.904359E-002,4.904359E-002,4.904359E-002,4.904359E-002,4.904359E-002,4.904359E-002,4.904359E-002,4.904359E-002,4.904359E-002,
   **   ~~~   ** Air System Named = CENTRAL SYSTEM did not converge for energy
   **   ~~~   ** Check values should be zero. Most Recent values listed first.
   **   ~~~   ** Demand-to-Supply interface energy check value iteration history trace: 971.878239,971.878239,971.878239,971.878239,971.878239,971.878239,971.878239,971.878239,971.878239,971.878239,
   **   ~~~   ** Supply-to-demand interface deck 1 energy check value iteration history trace: 1833.802613,1833.802613,1833.802613,1833.802613,1833.802613,1833.802613,1833.802613,1833.802613,1833.802613,1833.802613,
   ** Warning ** SimHVAC: Maximum iterations (20) exceeded for all HVAC loops, at ANNUAL, 04/26 09:35 - 09:40
   **   ~~~   ** The solution for one or more of the Air Loop HVAC systems did not appear to converge
   **   ~~~   ** Air System Named = CENTRAL SYSTEM did not converge for mass flow rate
   **   ~~~   ** Check values should be zero. Most Recent values listed first.
   **   ~~~   ** Demand-to-Supply interface mass flow rate check value iteration history trace: 4.910255E-002,4.910255E-002,4.910255E-002,4.910255E-002,4.910255E-002,4.910255E-002,4.910255E-002,4.910255E-002,4.910255E-002,4.910255E-002,
   **   ~~~   ** Supply-to-demand interface deck 1 mass flow rate check value iteration history trace: 4.910255E-002,4.910255E-002,4.910255E-002,4.910255E-002,4.910255E-002,4.910255E-002,4.910255E-002,4.910255E-002,4.910255E-002,4.910255E-002,
   **   ~~~   ** Air System Named = CENTRAL SYSTEM did not converge for energy
   **   ~~~   ** Check values should be zero. Most Recent values listed first.
   **   ~~~   ** Demand-to-Supply interface energy check value iteration history trace: 973.098224,973.098224,973.098224,973.098224,973.098224,973.098224,973.098224,973.098224,973.098224,973.098224,
   **   ~~~   ** Supply-to-demand interface deck 1 energy check value iteration history trace: 1836.028417,1836.028417,1836.028417,1836.028417,1836.028417,1836.028417,1836.028417,1836.028417,1836.028416,1836.028416,
   ** Warning ** SimHVAC: Maximum iterations (20) exceeded for all HVAC loops, at ANNUAL, 04/27 09:10 - 09:12
   **   ~~~   ** The solution for one or more of the Air Loop HVAC systems did not appear to converge
   **   ~~~   ** Air System Named = CENTRAL SYSTEM did not converge for mass flow rate
   **   ~~~   ** Check values should be zero. Most Recent values listed first.
   **   ~~~   ** Demand-to-Supply interface mass flow rate check value iteration history trace: 5.158517E-002,5.158517E-002,5.158517E-002,5.158517E-002,5.158517E-002,5.158517E-002,5.158517E-002,5.158517E-002,5.158517E-002,5.158517E-002,
   **   ~~~   ** Supply-to-demand interface deck 1 mass flow rate check value iteration history trace: 5.158517E-002,5.158517E-002,5.158517E-002,5.158517E-002,5.158517E-002,5.158517E-002,5.158517E-002,5.158517E-002,5.158517E-002,5.158517E-002,
   **   ~~~   ** Air System Named = CENTRAL SYSTEM did not converge for energy
   **   ~~~   ** Check values should be zero. Most Recent values listed first.
   **   ~~~   ** Demand-to-Supply interface energy check value iteration history trace: 1019.599941,1019.599941,1019.599941,1019.599941,1019.599941,1019.599941,1019.599941,1019.599941,1019.599941,1019.599941,
   **   ~~~   ** Supply-to-demand interface deck 1 energy check value iteration history trace: 1922.194056,1922.194056,1922.194056,1922.194055,1922.194055,1922.194055,1922.194055,1922.194055,1922.194055,1922.194055,
   ** Warning ** SimHVAC: Maximum iterations (20) exceeded for all HVAC loops, at ANNUAL, 05/02 09:04 - 09:08
   **   ~~~   ** The solution for one or more of the Air Loop HVAC systems did not appear to converge
   **   ~~~   ** Air System Named = CENTRAL SYSTEM did not converge for mass flow rate
   **   ~~~   ** Check values should be zero. Most Recent values listed first.
   **   ~~~   ** Demand-to-Supply interface mass flow rate check value iteration history trace: 4.943307E-002,4.943307E-002,4.943307E-002,4.943307E-002,4.943307E-002,4.943307E-002,4.943307E-002,4.943307E-002,4.943307E-002,4.943307E-002,
   **   ~~~   ** Supply-to-demand interface deck 1 mass flow rate check value iteration history trace: 4.943307E-002,4.943307E-002,4.943307E-002,4.943307E-002,4.943307E-002,4.943307E-002,4.943307E-002,4.943307E-002,4.943307E-002,4.943307E-002,
   **   ~~~   ** Air System Named = CENTRAL SYSTEM did not converge for energy
   **   ~~~   ** Check values should be zero. Most Recent values listed first.
   **   ~~~   ** Demand-to-Supply interface energy check value iteration history trace: 976.624929,976.624929,976.624929,976.624929,976.624929,976.624929,976.624929,976.624929,976.624929,976.624929,
   **   ~~~   ** Supply-to-demand interface deck 1 energy check value iteration history trace: 1832.793123,1832.793123,1832.793123,1832.793122,1832.793122,1832.793122,1832.793122,1832.793122,1832.793122,1832.793122,
   ** Warning ** SimHVAC: Maximum iterations (20) exceeded for all HVAC loops, at ANNUAL, 05/06 08:43 - 08:45
   **   ~~~   ** The solution for one or more of the Air Loop HVAC systems did not appear to converge
   **   ~~~   ** Air System Named = CENTRAL SYSTEM did not converge for mass flow rate
   **   ~~~   ** Check values should be zero. Most Recent values listed first.
   **   ~~~   ** Demand-to-Supply interface mass flow rate check value iteration history trace: 5.248713E-002,5.248713E-002,5.248713E-002,5.248713E-002,5.248713E-002,5.248713E-002,5.248713E-002,5.248713E-002,5.248713E-002,5.248713E-002,
   **   ~~~   ** Supply-to-demand interface deck 1 mass flow rate check value iteration history trace: 5.248713E-002,5.248713E-002,5.248713E-002,5.248713E-002,5.248713E-002,5.248713E-002,5.248713E-002,5.248713E-002,5.248713E-002,5.248713E-002,
   **   ~~~   ** Air System Named = CENTRAL SYSTEM did not converge for energy
   **   ~~~   ** Check values should be zero. Most Recent values listed first.
   **   ~~~   ** Demand-to-Supply interface energy check value iteration history trace: 1035.202793,1035.202793,1035.202793,1035.202793,1035.202793,1035.202793,1035.202793,1035.202793,1035.202793,1035.202793,
   **   ~~~   ** Supply-to-demand interface deck 1 energy check value iteration history trace: 2031.920788,2031.920788,2031.920788,2031.920788,2031.920787,2031.920787,2031.920787,2031.920787,2031.920787,2031.920787,
   ** Warning ** SimHVAC: Maximum iterations (20) exceeded for all HVAC loops, at ANNUAL, 06/02 09:58 - 10:00
   **   ~~~   ** The solution for one or more of the Air Loop HVAC systems did not appear to converge
   **   ~~~   ** Air System Named = CENTRAL SYSTEM did not converge for mass flow rate
   **   ~~~   ** Check values should be zero. Most Recent values listed first.
   **   ~~~   ** Demand-to-Supply interface mass flow rate check value iteration history trace: 4.661291E-002,4.661291E-002,4.661291E-002,4.661291E-002,4.661291E-002,4.661291E-002,4.661291E-002,4.661291E-002,4.661291E-002,4.661291E-002,
   **   ~~~   ** Supply-to-demand interface deck 1 mass flow rate check value iteration history trace: 4.661291E-002,4.661291E-002,4.661291E-002,4.661291E-002,4.661291E-002,4.661291E-002,4.661291E-002,4.661291E-002,4.661291E-002,4.661291E-002,
   **   ~~~   ** Air System Named = CENTRAL SYSTEM did not converge for energy
   **   ~~~   ** Check values should be zero. Most Recent values listed first.
   **   ~~~   ** Demand-to-Supply interface energy check value iteration history trace: 918.567390,918.567390,918.567390,918.567390,918.567390,918.567390,918.567390,918.567390,918.567390,918.567390,
   **   ~~~   ** Supply-to-demand interface deck 1 energy check value iteration history trace: 1798.674493,1798.674493,1798.674493,1798.674493,1798.674493,1798.674493,1798.674493,1798.674493,1798.674493,1798.674493,
   ** Warning ** SimHVAC: Maximum iterations (20) exceeded for all HVAC loops, at ANNUAL, 06/09 09:30 - 09:38
   **   ~~~   ** The solution for one or more of the Air Loop HVAC systems did not appear to converge
   **   ~~~   ** Air System Named = CENTRAL SYSTEM did not converge for mass flow rate
   **   ~~~   ** Check values should be zero. Most Recent values listed first.
   **   ~~~   ** Demand-to-Supply interface mass flow rate check value iteration history trace: 5.704282E-002,5.704282E-002,5.704282E-002,5.704282E-002,5.704282E-002,5.704282E-002,5.704282E-002,5.704282E-002,5.704282E-002,5.704282E-002,
   **   ~~~   ** Supply-to-demand interface deck 1 mass flow rate check value iteration history trace: 5.704282E-002,5.704282E-002,5.704282E-002,5.704282E-002,5.704282E-002,5.704282E-002,5.704282E-002,5.704282E-002,5.704282E-002,5.704282E-002,
   **   ~~~   ** Air System Named = CENTRAL SYSTEM did not converge for energy
   **   ~~~   ** Check values should be zero. Most Recent values listed first.
   **   ~~~   ** Demand-to-Supply interface energy check value iteration history trace: 1130.336893,1130.336893,1130.336893,1130.336893,1130.336893,1130.336893,1130.336893,1130.336893,1130.336893,1130.336892,
   **   ~~~   ** Supply-to-demand interface deck 1 energy check value iteration history trace: 2104.936895,2104.936895,2104.936895,2104.936895,2104.936895,2104.936895,2104.936895,2104.936895,2104.936895,2104.936895,
   ************* Simulation Error Summary *************
   ** Warning ** The following Report Variables were requested but not generated -- check.rdd file
   **   ~~~   ** Either the IDF did not contain these elements, the variable name is misspelled,
   **   ~~~   ** or the requested variable is an advanced output which requires Output : Diagnostics, DisplayAdvancedReportVariables;
   ************* Key=*, VarName=BASEBOARD TOTAL HEATING ENERGY, Frequency=
   ************* Key=*, VarName=WATER HEATER NATURALGAS ENERGY, Frequency=
   ************* Key=*, VarName=COOLING COIL TOTAL HEATING ENERGY, Frequency=
   ************* There are 34 unused schedules in input.
   ************* There are 388 unused week schedules in input.
   ************* There are 396 unused day schedules in input.
   ************* Use Output:Diagnostics,DisplayUnusedSchedules; to see them.
   *************
   ************* ===== Recurring Error Summary =====
   ************* The following recurring error messages occurred.
   *************
   *************  ** Warning ** "TOTAL HOT WATER LOAD" - Target water temperature should be less than or equal to the hot water temperature error continues...
   *************  **   ~~~   **   This error occurred 137179 total times;
   *************  **   ~~~   **   during Warmup 0 times;
   *************  **   ~~~   **   during Sizing 0 times.
   *************  **   ~~~   **   Max=16.624697  Min=4.974513E-004
   *************
   *************  ** Warning ** SimHVAC: Exceeding Maximum iterations for all HVAC loops, during ANNUAL continues
   *************  **   ~~~   **   This error occurred 16 total times;
   *************  **   ~~~   **   during Warmup 0 times;
   *************  **   ~~~   **   during Sizing 0 times.
   *************
   *************
   ************* ===== Final Error Summary =====
   ************* The following error categories occurred.  Consider correcting or noting.
   ************* Nominally Unused Constructions
   ************* ..The nominally unused constructions warning is provided to alert you to potential conditions that can cause
   ************* ..extra time during simulation. Each construction is calculated by the algorithm indicated in the HeatBalanceAlgorithm
   ************* ..object. You may remove the constructions indicated (when you use the DisplayExtraWarnings option).
   *************
   ************* EnergyPlus Warmup Error Summary. During Warmup: 1 Warning; 0 Severe Errors.
   ************* EnergyPlus Sizing Error Summary. During Sizing: 4 Warning; 0 Severe Errors.
   ************* EnergyPlus Completed Successfully-- 137227 Warning; 0 Severe Errors; Elapsed Time=00hr 01min 39.91sec
