Program Version,EnergyPlus, Version 22.2.0-c249759bad, YMD=2023.09.01 14:56,
   ************* Beginning Zone Sizing Calculations
   ** Warning ** ProcessScheduleInput: Schedule:Constant="ALWAYS ON DISCRETE", Schedule Type Limits Name="ONOFF" not found -- will not be validated
   ** Warning ** Foundation:Kiva="KIVA FOUNDATION", no Interior Horizontal Insulation Material Name defined
   **   ~~~   ** Interior Horizontal Insulation Depth will not be used.
   ** Warning ** CheckUsedConstructions: There are 15 nominally unused constructions in input.
   **   ~~~   ** Each Unused construction is shown.
   ************* Construction=INTERIOR FLOOR
   ************* Construction=INTERIOR WINDOW
   ************* Construction=EXTERIOR DOOR
   ************* Construction=INTERIOR DOOR
   ************* Construction=GABLE CONSTRUCTION
   ************* Construction=CRAWL_FLOOR
   ************* Construction=INSULATED PIPE
   ************* Construction=PLAIN PIPE
   ************* Construction=TDD PIPE
   ************* Construction=TDD DOME
   ************* Construction=TDD DIFFUSER
   ************* Construction=CRAWL WALL
   ************* Construction=CEILING-FLOOR-LAYER
   ************* Construction=SLAB CONSTRUCTION W FULL R10 INSULATION
   ************* Construction=SLAB CONSTRUCTION W FULL R5 INSULATION
   ** Warning ** GetDXCoils: Coil:Heating:DX:SingleSpeed="DX_HEATING_COIL" curve values
   **   ~~~   ** ... Defrost Energy Input Ratio Function of Temperature Curve Name = DEFROSTEIR output is not equal to 1.0 (+ or - 10%) at rated conditions.
   **   ~~~   ** ... Curve output at rated conditions = 0.152
   ************* Beginning System Sizing Calculations
   ************* Beginning Plant Sizing Calculations
   ** Warning ** Coil:WaterHeating:AirToWaterHeatPump:Wrapped "HEAT PUMP WATER HEATER EVAPORATOR": Rated air volume flow rate per watt of rated total water heating capacity is out of range
   **   ~~~   ** Min Rated Vol Flow Per Watt=[4.027E-005], Rated Vol Flow Per Watt=[1.386E-004], Max Rated Vol Flow Per Watt=[8.056E-005]. See Input-Output Reference Manual for valid range.
   ** Warning ** Water heater = WATER HEATER TANK:  Recovery Efficiency and Energy Factor could not be calculated during the test for standard ratings
   **   ~~~   ** Setpoint was never recovered and/or heater never turned on
   ** Warning ** Check input. Pump nominal power or motor efficiency is set to 0, for pump=MAINS PRESSURE
   ** Warning ** Output:Meter: invalid Key Name="ELECTRIC_RANGE:INTERIOREQUIPMENT:ELECTRICITY" - not found.
   ** Warning ** Output:Meter: invalid Key Name="ELECTRIC_DRYER:INTERIOREQUIPMENT:ELECTRICITY" - not found.
   ** Warning ** Output:Meter: invalid Key Name="HEATRECOVERY:ELECTRICITY" - not found.
   ** Warning ** Output:Meter: invalid Key Name="HEATING:NATURALGAS" - not found.
   ** Warning ** Output:Meter: invalid Key Name="WATERSYSTEMS:NATURALGAS" - not found.
   ** Warning ** Output:Meter: invalid Key Name="PROPANE:FACILITY" - not found.
   ** Warning ** Output:Meter: invalid Key Name="HEATING:PROPANE" - not found.
   ************* Testing Individual Branch Integrity
   ************* All Branches passed integrity testing
   ************* Testing Individual Supply Air Path Integrity
   ************* All Supply Air Paths passed integrity testing
   ************* Testing Individual Return Air Path Integrity
   ************* All Return Air Paths passed integrity testing
   ************* No node connection errors were found.
   ************* Beginning Simulation
   ** Warning ** AirflowNetwork::Solver::validate_distribution: Heat pump water heater is simulated along with an AirflowNetwork but is not included in the AirflowNetwork.
   ** Warning ** CalcEquipmentFlowRates: "TOTAL HOT WATER LOAD" - Target water temperature is greater than the hot water temperature by (1.63 C)
   **   ~~~   **  Environment=EXTREME_WINTER, at Simulation time=12/22 06:00 - 06:15
   **   ~~~   ** ...target water temperature     = 53.33 C
   **   ~~~   ** ...hot water temperature        = 51.70 C
   **   ~~~   ** ...Target water temperature should be less than or equal to the hot water temperature. Verify temperature setpoints and schedules.
   ** Warning ** SimHVAC: Maximum iterations (20) exceeded for all HVAC loops, at ANNUAL, 01/08 09:45 - 09:49
   **   ~~~   ** The solution for one or more of the Air Loop HVAC systems did not appear to converge
   **   ~~~   ** Air System Named = CENTRAL SYSTEM did not converge for mass flow rate
   **   ~~~   ** Check values should be zero. Most Recent values listed first.
   **   ~~~   ** Demand-to-Supply interface mass flow rate check value iteration history trace: 8.531047E-002,8.531047E-002,8.531047E-002,8.531047E-002,8.531047E-002,8.531047E-002,8.531047E-002,8.531047E-002,8.531047E-002,8.531047E-002,
   **   ~~~   ** Supply-to-demand interface deck 1 mass flow rate check value iteration history trace: 8.531047E-002,8.531047E-002,8.531047E-002,8.531047E-002,8.531047E-002,8.531047E-002,8.531047E-002,8.531047E-002,8.531047E-002,8.531047E-002,
   **   ~~~   ** Air System Named = CENTRAL SYSTEM did not converge for energy
   **   ~~~   ** Check values should be zero. Most Recent values listed first.
   **   ~~~   ** Demand-to-Supply interface energy check value iteration history trace: 1690.487047,1690.487047,1690.487047,1690.487047,1690.487047,1690.487046,1690.487046,1690.487046,1690.487046,1690.487046,
   **   ~~~   ** Supply-to-demand interface deck 1 energy check value iteration history trace: 2961.469843,2961.469843,2961.469843,2961.469843,2961.469843,2961.469843,2961.469843,2961.469843,2961.469843,2961.469842,
   ** Warning ** SimHVAC: Maximum iterations (20) exceeded for all HVAC loops, at ANNUAL, 02/14 20:15 - 20:30
   **   ~~~   ** The solution for one or more of the Air Loop HVAC systems did not appear to converge
   **   ~~~   ** Air System Named = CENTRAL SYSTEM did not converge for mass flow rate
   **   ~~~   ** Check values should be zero. Most Recent values listed first.
   **   ~~~   ** Demand-to-Supply interface mass flow rate check value iteration history trace: 8.548045E-002,8.548045E-002,8.548045E-002,8.548045E-002,8.548045E-002,8.548045E-002,8.548045E-002,8.548045E-002,8.548045E-002,8.548045E-002,
   **   ~~~   ** Supply-to-demand interface deck 1 mass flow rate check value iteration history trace: 8.548045E-002,8.548045E-002,8.548045E-002,8.548045E-002,8.548045E-002,8.548045E-002,8.548045E-002,8.548045E-002,8.548045E-002,8.548045E-002,
   **   ~~~   ** Air System Named = CENTRAL SYSTEM did not converge for energy
   **   ~~~   ** Check values should be zero. Most Recent values listed first.
   **   ~~~   ** Demand-to-Supply interface energy check value iteration history trace: 1674.863862,1674.863862,1674.863862,1674.863862,1674.863861,1674.863861,1674.863861,1674.863861,1674.863861,1674.863861,
   **   ~~~   ** Supply-to-demand interface deck 1 energy check value iteration history trace: 2838.442652,2838.442652,2838.442652,2838.442652,2838.442651,2838.442651,2838.442651,2838.442651,2838.442651,2838.442651,
   ** Warning ** SimHVAC: Maximum iterations (20) exceeded for all HVAC loops, at ANNUAL, 03/19 19:11 - 19:15
   **   ~~~   ** The solution for one or more of the Air Loop HVAC systems did not appear to converge
   **   ~~~   ** Air System Named = CENTRAL SYSTEM did not converge for mass flow rate
   **   ~~~   ** Check values should be zero. Most Recent values listed first.
   **   ~~~   ** Demand-to-Supply interface mass flow rate check value iteration history trace: 0.122901,0.122901,0.122901,0.122901,0.122901,0.122901,0.122901,0.122901,0.122901,0.122901,
   **   ~~~   ** Supply-to-demand interface deck 1 mass flow rate check value iteration history trace: 0.122901,0.122901,0.122901,0.122901,0.122901,0.122901,0.122901,0.122901,0.122901,0.122901,
   **   ~~~   ** Air System Named = CENTRAL SYSTEM did not converge for energy
   **   ~~~   ** Check values should be zero. Most Recent values listed first.
   **   ~~~   ** Demand-to-Supply interface energy check value iteration history trace: 2412.927851,2412.927851,2412.927851,2412.927851,2412.927851,2412.927850,2412.927850,2412.927850,2412.927850,2412.927850,
   **   ~~~   ** Supply-to-demand interface deck 1 energy check value iteration history trace: 3727.565487,3727.565486,3727.565486,3727.565486,3727.565486,3727.565485,3727.565485,3727.565485,3727.565485,3727.565484,
   ** Warning ** SimHVAC: Maximum iterations (20) exceeded for all HVAC loops, at ANNUAL, 03/24 16:00 - 16:15
   **   ~~~   ** The solution for one or more of the Air Loop HVAC systems did not appear to converge
   **   ~~~   ** Air System Named = CENTRAL SYSTEM did not converge for mass flow rate
   **   ~~~   ** Check values should be zero. Most Recent values listed first.
   **   ~~~   ** Demand-to-Supply interface mass flow rate check value iteration history trace: 9.558010E-002,9.558010E-002,9.558010E-002,9.558010E-002,9.558010E-002,9.558010E-002,9.558010E-002,9.558010E-002,9.558010E-002,9.558010E-002,
   **   ~~~   ** Supply-to-demand interface deck 1 mass flow rate check value iteration history trace: 9.558010E-002,9.558010E-002,9.558010E-002,9.558010E-002,9.558010E-002,9.558010E-002,9.558010E-002,9.558010E-002,9.558010E-002,9.558010E-002,
   **   ~~~   ** Air System Named = CENTRAL SYSTEM did not converge for energy
   **   ~~~   ** Check values should be zero. Most Recent values listed first.
   **   ~~~   ** Demand-to-Supply interface energy check value iteration history trace: 1864.902789,1864.902789,1864.902789,1864.902789,1864.902789,1864.902789,1864.902789,1864.902789,1864.902789,1864.902788,
   **   ~~~   ** Supply-to-demand interface deck 1 energy check value iteration history trace: 2933.309251,2933.309251,2933.309250,2933.309250,2933.309250,2933.309250,2933.309250,2933.309250,2933.309249,2933.309249,
   ** Warning ** SimHVAC: Maximum iterations (20) exceeded for all HVAC loops, at ANNUAL, 03/28 19:15 - 19:30
   **   ~~~   ** The solution for one or more of the Air Loop HVAC systems did not appear to converge
   **   ~~~   ** Air System Named = CENTRAL SYSTEM did not converge for mass flow rate
   **   ~~~   ** Check values should be zero. Most Recent values listed first.
   **   ~~~   ** Demand-to-Supply interface mass flow rate check value iteration history trace: 0.114228,0.114228,0.114228,0.114228,0.114228,0.114228,0.114228,0.114228,0.114228,0.114228,
   **   ~~~   ** Supply-to-demand interface deck 1 mass flow rate check value iteration history trace: 0.114228,0.114228,0.114228,0.114228,0.114228,0.114228,0.114228,0.114228,0.114228,0.114228,
   **   ~~~   ** Air System Named = CENTRAL SYSTEM did not converge for energy
   **   ~~~   ** Check values should be zero. Most Recent values listed first.
   **   ~~~   ** Demand-to-Supply interface energy check value iteration history trace: 2259.693815,2259.693815,2259.693815,2259.693814,2259.693814,2259.693814,2259.693814,2259.693814,2259.693814,2259.693814,
   **   ~~~   ** Supply-to-demand interface deck 1 energy check value iteration history trace: 3432.845352,3432.845352,3432.845351,3432.845351,3432.845351,3432.845351,3432.845350,3432.845350,3432.845350,3432.845350,
   ** Warning ** SimHVAC: Maximum iterations (20) exceeded for all HVAC loops, at ANNUAL, 04/05 21:15 - 21:22
   **   ~~~   ** The solution for one or more of the Air Loop HVAC systems did not appear to converge
   **   ~~~   ** Air System Named = CENTRAL SYSTEM did not converge for mass flow rate
   **   ~~~   ** Check values should be zero. Most Recent values listed first.
   **   ~~~   ** Demand-to-Supply interface mass flow rate check value iteration history trace: 9.258593E-002,9.258593E-002,9.258593E-002,9.258593E-002,9.258593E-002,9.258593E-002,9.258593E-002,9.258593E-002,9.258593E-002,9.258593E-002,
   **   ~~~   ** Supply-to-demand interface deck 1 mass flow rate check value iteration history trace: 9.258593E-002,9.258593E-002,9.258593E-002,9.258593E-002,9.258593E-002,9.258593E-002,9.258593E-002,9.258593E-002,9.258593E-002,9.258593E-002,
   **   ~~~   ** Air System Named = CENTRAL SYSTEM did not converge for energy
   **   ~~~   ** Check values should be zero. Most Recent values listed first.
   **   ~~~   ** Demand-to-Supply interface energy check value iteration history trace: 1827.695284,1827.695284,1827.695284,1827.695284,1827.695284,1827.695284,1827.695284,1827.695283,1827.695283,1827.695283,
   **   ~~~   ** Supply-to-demand interface deck 1 energy check value iteration history trace: 2835.049502,2835.049502,2835.049502,2835.049502,2835.049502,2835.049501,2835.049501,2835.049501,2835.049501,2835.049501,
   ** Warning ** SimHVAC: Maximum iterations (20) exceeded for all HVAC loops, at ANNUAL, 04/05 21:30 - 21:45
   **   ~~~   ** The solution for one or more of the Air Loop HVAC systems did not appear to converge
   **   ~~~   ** Air System Named = CENTRAL SYSTEM did not converge for mass flow rate
   **   ~~~   ** Check values should be zero. Most Recent values listed first.
   **   ~~~   ** Demand-to-Supply interface mass flow rate check value iteration history trace: 2.426532E-002,2.426532E-002,2.426532E-002,2.426532E-002,2.426532E-002,2.426532E-002,2.426532E-002,2.426532E-002,2.426532E-002,2.426532E-002,
   **   ~~~   ** Supply-to-demand interface deck 1 mass flow rate check value iteration history trace: 2.426532E-002,2.426532E-002,2.426532E-002,2.426532E-002,2.426532E-002,2.426532E-002,2.426532E-002,2.426532E-002,2.426532E-002,2.426532E-002,
   **   ~~~   ** Air System Named = CENTRAL SYSTEM did not converge for energy
   **   ~~~   ** Check values should be zero. Most Recent values listed first.
   **   ~~~   ** Demand-to-Supply interface energy check value iteration history trace: 479.552589,479.552589,479.552589,479.552589,479.552589,479.552589,479.552588,479.552588,479.552588,479.552588,
   **   ~~~   ** Supply-to-demand interface deck 1 energy check value iteration history trace: 742.104173,742.104173,742.104173,742.104173,742.104173,742.104173,742.104173,742.104173,742.104173,742.104173,
   ** Warning ** SimHVAC: Maximum iterations (20) exceeded for all HVAC loops, at ANNUAL, 04/18 09:38 - 09:45
   **   ~~~   ** The solution for one or more of the Air Loop HVAC systems did not appear to converge
   **   ~~~   ** Air System Named = CENTRAL SYSTEM did not converge for mass flow rate
   **   ~~~   ** Check values should be zero. Most Recent values listed first.
   **   ~~~   ** Demand-to-Supply interface mass flow rate check value iteration history trace: 1.664269E-002,1.664269E-002,1.664269E-002,1.664269E-002,1.664269E-002,1.664269E-002,1.664269E-002,1.664269E-002,1.664269E-002,1.664269E-002,
   **   ~~~   ** Supply-to-demand interface deck 1 mass flow rate check value iteration history trace: 1.664269E-002,1.664269E-002,1.664269E-002,1.664269E-002,1.664269E-002,1.664269E-002,1.664269E-002,1.664269E-002,1.664269E-002,1.664269E-002,
   **   ~~~   ** Air System Named = CENTRAL SYSTEM did not converge for energy
   **   ~~~   ** Check values should be zero. Most Recent values listed first.
   **   ~~~   ** Demand-to-Supply interface energy check value iteration history trace: 329.704914,329.704914,329.704914,329.704914,329.704914,329.704914,329.704914,329.704914,329.704914,329.704914,
   **   ~~~   ** Supply-to-demand interface deck 1 energy check value iteration history trace: 564.593497,564.593497,564.593497,564.593497,564.593497,564.593497,564.593497,564.593497,564.593497,564.593497,
   ** Warning ** SimHVAC: Maximum iterations (20) exceeded for all HVAC loops, at ANNUAL, 04/25 09:15 - 09:18
   **   ~~~   ** The solution for one or more of the Air Loop HVAC systems did not appear to converge
   **   ~~~   ** Air System Named = CENTRAL SYSTEM did not converge for mass flow rate
   **   ~~~   ** Check values should be zero. Most Recent values listed first.
   **   ~~~   ** Demand-to-Supply interface mass flow rate check value iteration history trace: 6.886252E-002,6.886252E-002,6.886252E-002,6.886252E-002,6.886252E-002,6.886252E-002,6.886252E-002,6.886252E-002,6.886252E-002,6.886252E-002,
   **   ~~~   ** Supply-to-demand interface deck 1 mass flow rate check value iteration history trace: 6.886252E-002,6.886252E-002,6.886252E-002,6.886252E-002,6.886252E-002,6.886252E-002,6.886252E-002,6.886252E-002,6.886252E-002,6.886252E-002,
   **   ~~~   ** Air System Named = CENTRAL SYSTEM did not converge for energy
   **   ~~~   ** Check values should be zero. Most Recent values listed first.
   **   ~~~   ** Demand-to-Supply interface energy check value iteration history trace: 1362.058284,1362.058284,1362.058284,1362.058284,1362.058284,1362.058284,1362.058283,1362.058283,1362.058283,1362.058283,
   **   ~~~   ** Supply-to-demand interface deck 1 energy check value iteration history trace: 2469.291654,2469.291654,2469.291653,2469.291653,2469.291653,2469.291653,2469.291653,2469.291653,2469.291653,2469.291653,
   ** Warning ** SimHVAC: Maximum iterations (20) exceeded for all HVAC loops, at ANNUAL, 04/26 07:30 - 07:32
   **   ~~~   ** The solution for one or more of the Air Loop HVAC systems did not appear to converge
   **   ~~~   ** Air System Named = CENTRAL SYSTEM did not converge for mass flow rate
   **   ~~~   ** Check values should be zero. Most Recent values listed first.
   **   ~~~   ** Demand-to-Supply interface mass flow rate check value iteration history trace: 8.620440E-002,8.620440E-002,8.620440E-002,8.620440E-002,8.620440E-002,8.620440E-002,8.620440E-002,8.620440E-002,8.620440E-002,8.620440E-002,
   **   ~~~   ** Supply-to-demand interface deck 1 mass flow rate check value iteration history trace: 8.620440E-002,8.620440E-002,8.620440E-002,8.620440E-002,8.620440E-002,8.620440E-002,8.620440E-002,8.620440E-002,8.620440E-002,8.620440E-002,
   **   ~~~   ** Air System Named = CENTRAL SYSTEM did not converge for energy
   **   ~~~   ** Check values should be zero. Most Recent values listed first.
   **   ~~~   ** Demand-to-Supply interface energy check value iteration history trace: 1703.990480,1703.990480,1703.990480,1703.990480,1703.990480,1703.990480,1703.990480,1703.990480,1703.990480,1703.990480,
   **   ~~~   ** Supply-to-demand interface deck 1 energy check value iteration history trace: 2908.830813,2908.830813,2908.830813,2908.830813,2908.830813,2908.830813,2908.830813,2908.830813,2908.830812,2908.830812,
   ** Warning ** SimHVAC: Maximum iterations (20) exceeded for all HVAC loops, at ANNUAL, 04/26 08:09 - 08:11
   **   ~~~   ** The solution for one or more of the Air Loop HVAC systems did not appear to converge
   **   ~~~   ** Air System Named = CENTRAL SYSTEM did not converge for mass flow rate
   **   ~~~   ** Check values should be zero. Most Recent values listed first.
   **   ~~~   ** Demand-to-Supply interface mass flow rate check value iteration history trace: 7.565584E-002,7.565584E-002,7.565584E-002,7.565584E-002,7.565584E-002,7.565584E-002,7.565584E-002,7.565584E-002,7.565584E-002,7.565584E-002,
   **   ~~~   ** Supply-to-demand interface deck 1 mass flow rate check value iteration history trace: 7.565584E-002,7.565584E-002,7.565584E-002,7.565584E-002,7.565584E-002,7.565584E-002,7.565584E-002,7.565584E-002,7.565584E-002,7.565584E-002,
   **   ~~~   ** Air System Named = CENTRAL SYSTEM did not converge for energy
   **   ~~~   ** Check values should be zero. Most Recent values listed first.
   **   ~~~   ** Demand-to-Supply interface energy check value iteration history trace: 1495.222807,1495.222807,1495.222807,1495.222807,1495.222807,1495.222807,1495.222806,1495.222806,1495.222806,1495.222806,
   **   ~~~   ** Supply-to-demand interface deck 1 energy check value iteration history trace: 2570.709301,2570.709301,2570.709301,2570.709301,2570.709301,2570.709300,2570.709300,2570.709300,2570.709300,2570.709300,
   ** Warning ** SimHVAC: Maximum iterations (20) exceeded for all HVAC loops, at ANNUAL, 04/28 06:45 - 06:47
   **   ~~~   ** The solution for one or more of the Air Loop HVAC systems did not appear to converge
   **   ~~~   ** Air System Named = CENTRAL SYSTEM did not converge for mass flow rate
   **   ~~~   ** Check values should be zero. Most Recent values listed first.
   **   ~~~   ** Demand-to-Supply interface mass flow rate check value iteration history trace: 8.971672E-002,8.971672E-002,8.971672E-002,8.971672E-002,8.971672E-002,8.971672E-002,8.971672E-002,8.971672E-002,8.971672E-002,8.971672E-002,
   **   ~~~   ** Supply-to-demand interface deck 1 mass flow rate check value iteration history trace: 8.971672E-002,8.971672E-002,8.971672E-002,8.971672E-002,8.971672E-002,8.971672E-002,8.971672E-002,8.971672E-002,8.971672E-002,8.971672E-002,
   **   ~~~   ** Air System Named = CENTRAL SYSTEM did not converge for energy
   **   ~~~   ** Check values should be zero. Most Recent values listed first.
   **   ~~~   ** Demand-to-Supply interface energy check value iteration history trace: 1777.806648,1777.806648,1777.806648,1777.806648,1777.806648,1777.806648,1777.806648,1777.806648,1777.806648,1777.806648,
   **   ~~~   ** Supply-to-demand interface deck 1 energy check value iteration history trace: 3028.678837,3028.678837,3028.678837,3028.678837,3028.678837,3028.678837,3028.678837,3028.678836,3028.678836,3028.678836,
   ** Warning ** SimHVAC: Maximum iterations (20) exceeded for all HVAC loops, at ANNUAL, 09/25 07:45 - 08:00
   **   ~~~   ** The solution for one or more of the Air Loop HVAC systems did not appear to converge
   **   ~~~   ** Air System Named = CENTRAL SYSTEM did not converge for mass flow rate
   **   ~~~   ** Check values should be zero. Most Recent values listed first.
   **   ~~~   ** Demand-to-Supply interface mass flow rate check value iteration history trace: 0.142305,0.142305,0.142305,0.142305,0.142305,0.142305,0.142305,0.142305,0.142305,0.142305,
   **   ~~~   ** Supply-to-demand interface deck 1 mass flow rate check value iteration history trace: 0.142305,0.142305,0.142305,0.142305,0.142305,0.142305,0.142305,0.142305,0.142305,0.142305,
   **   ~~~   ** Air System Named = CENTRAL SYSTEM did not converge for energy
   **   ~~~   ** Check values should be zero. Most Recent values listed first.
   **   ~~~   ** Demand-to-Supply interface energy check value iteration history trace: 3351.266582,3351.266583,3351.266584,3351.266585,3351.266586,3351.266588,3351.266589,3351.266590,3351.266591,3351.266593,
   **   ~~~   ** Supply-to-demand interface deck 1 energy check value iteration history trace: 1955.543049,1955.543050,1955.543051,1955.543051,1955.543052,1955.543053,1955.543053,1955.543054,1955.543055,1955.543056,
   ** Warning ** SimHVAC: Maximum iterations (20) exceeded for all HVAC loops, at ANNUAL, 10/05 20:05 - 20:10
   **   ~~~   ** The solution for one or more of the Air Loop HVAC systems did not appear to converge
   **   ~~~   ** Air System Named = CENTRAL SYSTEM did not converge for mass flow rate
   **   ~~~   ** Check values should be zero. Most Recent values listed first.
   **   ~~~   ** Demand-to-Supply interface mass flow rate check value iteration history trace: 0.128531,0.128531,0.128531,0.128531,0.128531,0.128531,0.128531,0.128531,0.128531,0.128531,
   **   ~~~   ** Supply-to-demand interface deck 1 mass flow rate check value iteration history trace: 0.128531,0.128531,0.128531,0.128531,0.128531,0.128531,0.128531,0.128531,0.128531,0.128531,
   **   ~~~   ** Air System Named = CENTRAL SYSTEM did not converge for energy
   **   ~~~   ** Check values should be zero. Most Recent values listed first.
   **   ~~~   ** Demand-to-Supply interface energy check value iteration history trace: 3018.977049,3018.977049,3018.977050,3018.977050,3018.977051,3018.977051,3018.977052,3018.977052,3018.977053,3018.977053,
   **   ~~~   ** Supply-to-demand interface deck 1 energy check value iteration history trace: 1467.506741,1467.506742,1467.506742,1467.506742,1467.506742,1467.506743,1467.506743,1467.506743,1467.506743,1467.506744,
   ************* Simulation Error Summary *************
   ** Warning ** The following Report Variables were requested but not generated -- check.rdd file
   **   ~~~   ** Either the IDF did not contain these elements, the variable name is misspelled,
   **   ~~~   ** or the requested variable is an advanced output which requires Output : Diagnostics, DisplayAdvancedReportVariables;
   ************* Key=*, VarName=BASEBOARD TOTAL HEATING ENERGY, Frequency=
   ************* Key=*, VarName=WATER HEATER NATURALGAS ENERGY, Frequency=
   ************* Key=*, VarName=COOLING COIL TOTAL HEATING ENERGY, Frequency=
   ************* There are 34 unused schedules in input.
   ************* There are 388 unused week schedules in input.
   ************* There are 396 unused day schedules in input.
   ************* Use Output:Diagnostics,DisplayUnusedSchedules; to see them.
   *************
   ************* ===== Recurring Error Summary =====
   ************* The following recurring error messages occurred.
   *************
   *************  ** Warning ** "TOTAL HOT WATER LOAD" - Target water temperature should be less than or equal to the hot water temperature error continues...
   *************  **   ~~~   **   This error occurred 91983 total times;
   *************  **   ~~~   **   during Warmup 0 times;
   *************  **   ~~~   **   during Sizing 0 times.
   *************  **   ~~~   **   Max=11.088958  Min=9.643673E-005
   *************
   *************  ** Warning ** SimHVAC: Exceeding Maximum iterations for all HVAC loops, during ANNUAL continues
   *************  **   ~~~   **   This error occurred 2 total times;
   *************  **   ~~~   **   during Warmup 0 times;
   *************  **   ~~~   **   during Sizing 0 times.
   *************
   *************
   ************* ===== Final Error Summary =====
   ************* The following error categories occurred.  Consider correcting or noting.
   ************* Nominally Unused Constructions
   ************* ..The nominally unused constructions warning is provided to alert you to potential conditions that can cause
   ************* ..extra time during simulation. Each construction is calculated by the algorithm indicated in the HeatBalanceAlgorithm
   ************* ..object. You may remove the constructions indicated (when you use the DisplayExtraWarnings option).
   *************
   ************* EnergyPlus Warmup Error Summary. During Warmup: 1 Warning; 0 Severe Errors.
   ************* EnergyPlus Sizing Error Summary. During Sizing: 4 Warning; 0 Severe Errors.
   ************* EnergyPlus Completed Successfully-- 92016 Warning; 0 Severe Errors; Elapsed Time=00hr 05min 13.08sec
