Program Version,EnergyPlus, Version 22.2.0-c249759bad, YMD=2023.09.01 15:20,
   ************* Beginning Zone Sizing Calculations
   ** Warning ** ProcessScheduleInput: Schedule:Constant="ALWAYS ON DISCRETE", Schedule Type Limits Name="ONOFF" not found -- will not be validated
   ** Warning ** Foundation:Kiva="KIVA FOUNDATION", no Interior Horizontal Insulation Material Name defined
   **   ~~~   ** Interior Horizontal Insulation Depth will not be used.
   ** Warning ** CheckUsedConstructions: There are 15 nominally unused constructions in input.
   **   ~~~   ** Each Unused construction is shown.
   ************* Construction=INTERIOR FLOOR
   ************* Construction=INTERIOR WINDOW
   ************* Construction=EXTERIOR DOOR
   ************* Construction=INTERIOR DOOR
   ************* Construction=GABLE CONSTRUCTION
   ************* Construction=CRAWL_FLOOR
   ************* Construction=INSULATED PIPE
   ************* Construction=PLAIN PIPE
   ************* Construction=TDD PIPE
   ************* Construction=TDD DOME
   ************* Construction=TDD DIFFUSER
   ************* Construction=CRAWL WALL
   ************* Construction=CEILING-FLOOR-LAYER
   ************* Construction=SLAB CONSTRUCTION W FULL R10 INSULATION
   ************* Construction=SLAB CONSTRUCTION W FULL R5 INSULATION
   ** Warning ** GetDXCoils: Coil:Heating:DX:SingleSpeed="DX_HEATING_COIL" curve values
   **   ~~~   ** ... Defrost Energy Input Ratio Function of Temperature Curve Name = DEFROSTEIR output is not equal to 1.0 (+ or - 10%) at rated conditions.
   **   ~~~   ** ... Curve output at rated conditions = 0.152
   ************* Beginning System Sizing Calculations
   ************* Beginning Plant Sizing Calculations
   ** Warning ** Coil:WaterHeating:AirToWaterHeatPump:Wrapped "HEAT PUMP WATER HEATER EVAPORATOR": Rated air volume flow rate per watt of rated total water heating capacity is out of range
   **   ~~~   ** Min Rated Vol Flow Per Watt=[4.027E-005], Rated Vol Flow Per Watt=[1.386E-004], Max Rated Vol Flow Per Watt=[8.056E-005]. See Input-Output Reference Manual for valid range.
   ** Warning ** Water heater = WATER HEATER TANK:  Recovery Efficiency and Energy Factor could not be calculated during the test for standard ratings
   **   ~~~   ** Setpoint was never recovered and/or heater never turned on
   ** Warning ** Check input. Pump nominal power or motor efficiency is set to 0, for pump=MAINS PRESSURE
   ** Warning ** Output:Meter: invalid Key Name="ELECTRIC_RANGE:INTERIOREQUIPMENT:ELECTRICITY" - not found.
   ** Warning ** Output:Meter: invalid Key Name="ELECTRIC_DRYER:INTERIOREQUIPMENT:ELECTRICITY" - not found.
   ** Warning ** Output:Meter: invalid Key Name="HEATRECOVERY:ELECTRICITY" - not found.
   ** Warning ** Output:Meter: invalid Key Name="HEATING:NATURALGAS" - not found.
   ** Warning ** Output:Meter: invalid Key Name="WATERSYSTEMS:NATURALGAS" - not found.
   ** Warning ** Output:Meter: invalid Key Name="PROPANE:FACILITY" - not found.
   ** Warning ** Output:Meter: invalid Key Name="HEATING:PROPANE" - not found.
   ************* Testing Individual Branch Integrity
   ************* All Branches passed integrity testing
   ************* Testing Individual Supply Air Path Integrity
   ************* All Supply Air Paths passed integrity testing
   ************* Testing Individual Return Air Path Integrity
   ************* All Return Air Paths passed integrity testing
   ************* No node connection errors were found.
   ************* Beginning Simulation
   ** Warning ** AirflowNetwork::Solver::validate_distribution: Heat pump water heater is simulated along with an AirflowNetwork but is not included in the AirflowNetwork.
   ** Warning ** CalcEquipmentFlowRates: "TOTAL HOT WATER LOAD" - Target water temperature is greater than the hot water temperature by (1.68 C)
   **   ~~~   **  Environment=EXTREME_WINTER, at Simulation time=01/27 06:00 - 06:15
   **   ~~~   ** ...target water temperature     = 53.33 C
   **   ~~~   ** ...hot water temperature        = 51.65 C
   **   ~~~   ** ...Target water temperature should be less than or equal to the hot water temperature. Verify temperature setpoints and schedules.
   ** Warning ** SimHVAC: Maximum iterations (20) exceeded for all HVAC loops, at ANNUAL, 03/04 20:00 - 20:08
   **   ~~~   ** The solution for one or more of the Air Loop HVAC systems did not appear to converge
   **   ~~~   ** Air System Named = CENTRAL SYSTEM did not converge for mass flow rate
   **   ~~~   ** Check values should be zero. Most Recent values listed first.
   **   ~~~   ** Demand-to-Supply interface mass flow rate check value iteration history trace: 8.969761E-002,8.969761E-002,8.969761E-002,8.969761E-002,8.969761E-002,8.969761E-002,8.969761E-002,8.969761E-002,8.969761E-002,8.969761E-002,
   **   ~~~   ** Supply-to-demand interface deck 1 mass flow rate check value iteration history trace: 8.969761E-002,8.969761E-002,8.969761E-002,8.969761E-002,8.969761E-002,8.969761E-002,8.969761E-002,8.969761E-002,8.969761E-002,8.969761E-002,
   **   ~~~   ** Air System Named = CENTRAL SYSTEM did not converge for energy
   **   ~~~   ** Check values should be zero. Most Recent values listed first.
   **   ~~~   ** Demand-to-Supply interface energy check value iteration history trace: 1775.160956,1775.160956,1775.160956,1775.160956,1775.160956,1775.160956,1775.160956,1775.160956,1775.160955,1775.160955,
   **   ~~~   ** Supply-to-demand interface deck 1 energy check value iteration history trace: 2915.457402,2915.457402,2915.457402,2915.457402,2915.457401,2915.457401,2915.457401,2915.457401,2915.457401,2915.457401,
   ** Warning ** SimHVAC: Maximum iterations (20) exceeded for all HVAC loops, at ANNUAL, 03/05 22:30 - 22:45
   **   ~~~   ** The solution for one or more of the Air Loop HVAC systems did not appear to converge
   **   ~~~   ** Air System Named = CENTRAL SYSTEM did not converge for mass flow rate
   **   ~~~   ** Check values should be zero. Most Recent values listed first.
   **   ~~~   ** Demand-to-Supply interface mass flow rate check value iteration history trace: 7.700634E-002,7.700634E-002,7.700634E-002,7.700634E-002,7.700634E-002,7.700634E-002,7.700634E-002,7.700634E-002,7.700634E-002,7.700634E-002,
   **   ~~~   ** Supply-to-demand interface deck 1 mass flow rate check value iteration history trace: 7.700634E-002,7.700634E-002,7.700634E-002,7.700634E-002,7.700634E-002,7.700634E-002,7.700634E-002,7.700634E-002,7.700634E-002,7.700634E-002,
   **   ~~~   ** Air System Named = CENTRAL SYSTEM did not converge for energy
   **   ~~~   ** Check values should be zero. Most Recent values listed first.
   **   ~~~   ** Demand-to-Supply interface energy check value iteration history trace: 1425.548496,1425.548496,1425.548496,1425.548496,1425.548496,1425.548496,1425.548496,1425.548496,1425.548495,1425.548495,
   **   ~~~   ** Supply-to-demand interface deck 1 energy check value iteration history trace: 2368.957262,2368.957262,2368.957261,2368.957261,2368.957261,2368.957261,2368.957261,2368.957261,2368.957261,2368.957261,
   ** Warning ** SimHVAC: Maximum iterations (20) exceeded for all HVAC loops, at ANNUAL, 03/18 11:00 - 11:15
   **   ~~~   ** The solution for one or more of the Air Loop HVAC systems did not appear to converge
   **   ~~~   ** Air System Named = CENTRAL SYSTEM did not converge for mass flow rate
   **   ~~~   ** Check values should be zero. Most Recent values listed first.
   **   ~~~   ** Demand-to-Supply interface mass flow rate check value iteration history trace: 5.710377E-002,5.710377E-002,5.710377E-002,5.710377E-002,5.710377E-002,5.710377E-002,5.710377E-002,5.710377E-002,5.710377E-002,5.710377E-002,
   **   ~~~   ** Supply-to-demand interface deck 1 mass flow rate check value iteration history trace: 5.710377E-002,5.710377E-002,5.710377E-002,5.710377E-002,5.710377E-002,5.710377E-002,5.710377E-002,5.710377E-002,5.710377E-002,5.710377E-002,
   **   ~~~   ** Air System Named = CENTRAL SYSTEM did not converge for energy
   **   ~~~   ** Check values should be zero. Most Recent values listed first.
   **   ~~~   ** Demand-to-Supply interface energy check value iteration history trace: 1131.631302,1131.631302,1131.631302,1131.631302,1131.631302,1131.631302,1131.631302,1131.631302,1131.631302,1131.631301,
   **   ~~~   ** Supply-to-demand interface deck 1 energy check value iteration history trace: 2194.624725,2194.624725,2194.624725,2194.624725,2194.624724,2194.624724,2194.624724,2194.624724,2194.624724,2194.624724,
   ** Warning ** SimHVAC: Maximum iterations (20) exceeded for all HVAC loops, at ANNUAL, 03/19 11:53 - 11:56
   **   ~~~   ** The solution for one or more of the Air Loop HVAC systems did not appear to converge
   **   ~~~   ** Air System Named = CENTRAL SYSTEM did not converge for mass flow rate
   **   ~~~   ** Check values should be zero. Most Recent values listed first.
   **   ~~~   ** Demand-to-Supply interface mass flow rate check value iteration history trace: 7.614548E-002,7.614548E-002,7.614548E-002,7.614548E-002,7.614548E-002,7.614548E-002,7.614548E-002,7.614548E-002,7.614548E-002,7.614548E-002,
   **   ~~~   ** Supply-to-demand interface deck 1 mass flow rate check value iteration history trace: 7.614548E-002,7.614548E-002,7.614548E-002,7.614548E-002,7.614548E-002,7.614548E-002,7.614548E-002,7.614548E-002,7.614548E-002,7.614548E-002,
   **   ~~~   ** Air System Named = CENTRAL SYSTEM did not converge for energy
   **   ~~~   ** Check values should be zero. Most Recent values listed first.
   **   ~~~   ** Demand-to-Supply interface energy check value iteration history trace: 1508.986138,1508.986138,1508.986138,1508.986138,1508.986138,1508.986137,1508.986137,1508.986137,1508.986137,1508.986137,
   **   ~~~   ** Supply-to-demand interface deck 1 energy check value iteration history trace: 2557.182353,2557.182352,2557.182352,2557.182352,2557.182352,2557.182352,2557.182352,2557.182352,2557.182351,2557.182351,
   ** Warning ** SimHVAC: Maximum iterations (20) exceeded for all HVAC loops, at ANNUAL, 03/19 13:25 - 13:30
   **   ~~~   ** The solution for one or more of the Air Loop HVAC systems did not appear to converge
   **   ~~~   ** Air System Named = CENTRAL SYSTEM did not converge for mass flow rate
   **   ~~~   ** Check values should be zero. Most Recent values listed first.
   **   ~~~   ** Demand-to-Supply interface mass flow rate check value iteration history trace: 4.975303E-002,4.975303E-002,4.975303E-002,4.975303E-002,4.975303E-002,4.975303E-002,4.975303E-002,4.975303E-002,4.975303E-002,4.975303E-002,
   **   ~~~   ** Supply-to-demand interface deck 1 mass flow rate check value iteration history trace: 4.975303E-002,4.975303E-002,4.975303E-002,4.975303E-002,4.975303E-002,4.975303E-002,4.975303E-002,4.975303E-002,4.975303E-002,4.975303E-002,
   **   ~~~   ** Air System Named = CENTRAL SYSTEM did not converge for energy
   **   ~~~   ** Check values should be zero. Most Recent values listed first.
   **   ~~~   ** Demand-to-Supply interface energy check value iteration history trace: 978.063019,978.063019,978.063019,978.063019,978.063019,978.063019,978.063019,978.063018,978.063018,978.063018,
   **   ~~~   ** Supply-to-demand interface deck 1 energy check value iteration history trace: 1801.532557,1801.532557,1801.532557,1801.532557,1801.532557,1801.532557,1801.532557,1801.532557,1801.532557,1801.532557,
   ** Warning ** SimHVAC: Maximum iterations (20) exceeded for all HVAC loops, at ANNUAL, 03/23 18:53 - 19:00
   **   ~~~   ** The solution for one or more of the Air Loop HVAC systems did not appear to converge
   **   ~~~   ** Air System Named = CENTRAL SYSTEM did not converge for mass flow rate
   **   ~~~   ** Check values should be zero. Most Recent values listed first.
   **   ~~~   ** Demand-to-Supply interface mass flow rate check value iteration history trace: 5.614886E-002,5.614886E-002,5.614886E-002,5.614886E-002,5.614886E-002,5.614886E-002,5.614886E-002,5.614886E-002,5.614886E-002,5.614886E-002,
   **   ~~~   ** Supply-to-demand interface deck 1 mass flow rate check value iteration history trace: 5.614886E-002,5.614886E-002,5.614886E-002,5.614886E-002,5.614886E-002,5.614886E-002,5.614886E-002,5.614886E-002,5.614886E-002,5.614886E-002,
   **   ~~~   ** Air System Named = CENTRAL SYSTEM did not converge for energy
   **   ~~~   ** Check values should be zero. Most Recent values listed first.
   **   ~~~   ** Demand-to-Supply interface energy check value iteration history trace: 1112.085487,1112.085487,1112.085487,1112.085487,1112.085486,1112.085486,1112.085486,1112.085486,1112.085486,1112.085486,
   **   ~~~   ** Supply-to-demand interface deck 1 energy check value iteration history trace: 2130.417658,2130.417657,2130.417657,2130.417657,2130.417657,2130.417657,2130.417657,2130.417657,2130.417657,2130.417657,
   ** Warning ** SimHVAC: Maximum iterations (20) exceeded for all HVAC loops, at ANNUAL, 04/09 08:34 - 08:38
   **   ~~~   ** The solution for one or more of the Air Loop HVAC systems did not appear to converge
   **   ~~~   ** Air System Named = CENTRAL SYSTEM did not converge for mass flow rate
   **   ~~~   ** Check values should be zero. Most Recent values listed first.
   **   ~~~   ** Demand-to-Supply interface mass flow rate check value iteration history trace: 5.962481E-002,5.962481E-002,5.962481E-002,5.962481E-002,5.962481E-002,5.962481E-002,5.962481E-002,5.962481E-002,5.962481E-002,5.962481E-002,
   **   ~~~   ** Supply-to-demand interface deck 1 mass flow rate check value iteration history trace: 5.962481E-002,5.962481E-002,5.962481E-002,5.962481E-002,5.962481E-002,5.962481E-002,5.962481E-002,5.962481E-002,5.962481E-002,5.962481E-002,
   **   ~~~   ** Air System Named = CENTRAL SYSTEM did not converge for energy
   **   ~~~   ** Check values should be zero. Most Recent values listed first.
   **   ~~~   ** Demand-to-Supply interface energy check value iteration history trace: 1181.595722,1181.595722,1181.595722,1181.595722,1181.595722,1181.595722,1181.595722,1181.595721,1181.595721,1181.595721,
   **   ~~~   ** Supply-to-demand interface deck 1 energy check value iteration history trace: 2279.909699,2279.909699,2279.909699,2279.909698,2279.909698,2279.909698,2279.909698,2279.909698,2279.909698,2279.909698,
   ** Warning ** SimHVAC: Maximum iterations (20) exceeded for all HVAC loops, at ANNUAL, 04/14 16:45 - 16:52
   **   ~~~   ** The solution for one or more of the Air Loop HVAC systems did not appear to converge
   **   ~~~   ** Air System Named = CENTRAL SYSTEM did not converge for mass flow rate
   **   ~~~   ** Check values should be zero. Most Recent values listed first.
   **   ~~~   ** Demand-to-Supply interface mass flow rate check value iteration history trace: 7.063561E-002,7.063561E-002,7.063561E-002,7.063561E-002,7.063561E-002,7.063561E-002,7.063561E-002,7.063561E-002,7.063561E-002,7.063561E-002,
   **   ~~~   ** Supply-to-demand interface deck 1 mass flow rate check value iteration history trace: 7.063561E-002,7.063561E-002,7.063561E-002,7.063561E-002,7.063561E-002,7.063561E-002,7.063561E-002,7.063561E-002,7.063561E-002,7.063561E-002,
   **   ~~~   ** Air System Named = CENTRAL SYSTEM did not converge for energy
   **   ~~~   ** Check values should be zero. Most Recent values listed first.
   **   ~~~   ** Demand-to-Supply interface energy check value iteration history trace: 1384.298183,1384.298183,1384.298183,1384.298182,1384.298182,1384.298182,1384.298182,1384.298182,1384.298182,1384.298182,
   **   ~~~   ** Supply-to-demand interface deck 1 energy check value iteration history trace: 2272.691382,2272.691381,2272.691381,2272.691381,2272.691381,2272.691381,2272.691381,2272.691381,2272.691380,2272.691380,
   ** Warning ** SimHVAC: Maximum iterations (20) exceeded for all HVAC loops, at ANNUAL, 05/09 08:00 - 08:15
   **   ~~~   ** The solution for one or more of the Air Loop HVAC systems did not appear to converge
   **   ~~~   ** Air System Named = CENTRAL SYSTEM did not converge for mass flow rate
   **   ~~~   ** Check values should be zero. Most Recent values listed first.
   **   ~~~   ** Demand-to-Supply interface mass flow rate check value iteration history trace: 7.443063E-002,7.443063E-002,7.443063E-002,7.443063E-002,7.443063E-002,7.443063E-002,7.443063E-002,7.443063E-002,7.443063E-002,7.443063E-002,
   **   ~~~   ** Supply-to-demand interface deck 1 mass flow rate check value iteration history trace: 7.443063E-002,7.443063E-002,7.443063E-002,7.443063E-002,7.443063E-002,7.443063E-002,7.443063E-002,7.443063E-002,7.443063E-002,7.443063E-002,
   **   ~~~   ** Air System Named = CENTRAL SYSTEM did not converge for energy
   **   ~~~   ** Check values should be zero. Most Recent values listed first.
   **   ~~~   ** Demand-to-Supply interface energy check value iteration history trace: 1464.870011,1464.870011,1464.870010,1464.870010,1464.870010,1464.870010,1464.870010,1464.870010,1464.870010,1464.870010,
   **   ~~~   ** Supply-to-demand interface deck 1 energy check value iteration history trace: 2699.502364,2699.502363,2699.502363,2699.502363,2699.502363,2699.502363,2699.502363,2699.502363,2699.502363,2699.502363,
   ** Warning ** SimHVAC: Maximum iterations (20) exceeded for all HVAC loops, at ANNUAL, 05/16 08:30 - 08:34
   **   ~~~   ** The solution for one or more of the Air Loop HVAC systems did not appear to converge
   **   ~~~   ** Air System Named = CENTRAL SYSTEM did not converge for mass flow rate
   **   ~~~   ** Check values should be zero. Most Recent values listed first.
   **   ~~~   ** Demand-to-Supply interface mass flow rate check value iteration history trace: 6.953838E-002,6.953838E-002,6.953838E-002,6.953838E-002,6.953838E-002,6.953838E-002,6.953838E-002,6.953838E-002,6.953838E-002,6.953838E-002,
   **   ~~~   ** Supply-to-demand interface deck 1 mass flow rate check value iteration history trace: 6.953838E-002,6.953838E-002,6.953838E-002,6.953838E-002,6.953838E-002,6.953838E-002,6.953838E-002,6.953838E-002,6.953838E-002,6.953838E-002,
   **   ~~~   ** Air System Named = CENTRAL SYSTEM did not converge for energy
   **   ~~~   ** Check values should be zero. Most Recent values listed first.
   **   ~~~   ** Demand-to-Supply interface energy check value iteration history trace: 1377.975997,1377.975997,1377.975997,1377.975997,1377.975997,1377.975997,1377.975997,1377.975997,1377.975997,1377.975997,
   **   ~~~   ** Supply-to-demand interface deck 1 energy check value iteration history trace: 2554.705401,2554.705401,2554.705401,2554.705401,2554.705401,2554.705401,2554.705401,2554.705401,2554.705401,2554.705401,
   ** Warning ** SimHVAC: Maximum iterations (20) exceeded for all HVAC loops, at ANNUAL, 06/12 07:45 - 08:00
   **   ~~~   ** The solution for one or more of the Air Loop HVAC systems did not appear to converge
   **   ~~~   ** Air System Named = CENTRAL SYSTEM did not converge for mass flow rate
   **   ~~~   ** Check values should be zero. Most Recent values listed first.
   **   ~~~   ** Demand-to-Supply interface mass flow rate check value iteration history trace: 4.596116E-002,4.596116E-002,4.596116E-002,4.596116E-002,4.596116E-002,4.596116E-002,4.596116E-002,4.596116E-002,4.596116E-002,4.596116E-002,
   **   ~~~   ** Supply-to-demand interface deck 1 mass flow rate check value iteration history trace: 4.596116E-002,4.596116E-002,4.596116E-002,4.596116E-002,4.596116E-002,4.596116E-002,4.596116E-002,4.596116E-002,4.596116E-002,4.596116E-002,
   **   ~~~   ** Air System Named = CENTRAL SYSTEM did not converge for energy
   **   ~~~   ** Check values should be zero. Most Recent values listed first.
   **   ~~~   ** Demand-to-Supply interface energy check value iteration history trace: 1075.289943,1075.289943,1075.289943,1075.289943,1075.289943,1075.289943,1075.289943,1075.289944,1075.289944,1075.289944,
   **   ~~~   ** Supply-to-demand interface deck 1 energy check value iteration history trace: 531.534626,531.534626,531.534626,531.534626,531.534626,531.534626,531.534626,531.534626,531.534626,531.534626,
   ** Warning ** SimHVAC: Maximum iterations (20) exceeded for all HVAC loops, at ANNUAL, 06/14 08:00 - 08:15
   **   ~~~   ** The solution for one or more of the Air Loop HVAC systems did not appear to converge
   **   ~~~   ** Air System Named = CENTRAL SYSTEM did not converge for mass flow rate
   **   ~~~   ** Check values should be zero. Most Recent values listed first.
   **   ~~~   ** Demand-to-Supply interface mass flow rate check value iteration history trace: 0.138932,0.138932,0.138932,0.138932,0.138932,0.138932,0.138932,0.138932,0.138932,0.138932,
   **   ~~~   ** Supply-to-demand interface deck 1 mass flow rate check value iteration history trace: 0.138932,0.138932,0.138932,0.138932,0.138932,0.138932,0.138932,0.138932,0.138932,0.138932,
   **   ~~~   ** Air System Named = CENTRAL SYSTEM did not converge for energy
   **   ~~~   ** Check values should be zero. Most Recent values listed first.
   **   ~~~   ** Demand-to-Supply interface energy check value iteration history trace: 3315.841895,3315.841895,3315.841896,3315.841896,3315.841896,3315.841896,3315.841897,3315.841897,3315.841897,3315.841897,
   **   ~~~   ** Supply-to-demand interface deck 1 energy check value iteration history trace: 1527.754264,1527.754264,1527.754264,1527.754264,1527.754264,1527.754264,1527.754264,1527.754264,1527.754264,1527.754264,
   ** Warning ** SimHVAC: Maximum iterations (20) exceeded for all HVAC loops, at ANNUAL, 09/13 07:45 - 07:48
   **   ~~~   ** The solution for one or more of the Air Loop HVAC systems did not appear to converge
   **   ~~~   ** Air System Named = CENTRAL SYSTEM did not converge for mass flow rate
   **   ~~~   ** Check values should be zero. Most Recent values listed first.
   **   ~~~   ** Demand-to-Supply interface mass flow rate check value iteration history trace: 6.564165E-002,6.564165E-002,6.564165E-002,6.564165E-002,6.564165E-002,6.564165E-002,6.564165E-002,6.564165E-002,6.564165E-002,6.564165E-002,
   **   ~~~   ** Supply-to-demand interface deck 1 mass flow rate check value iteration history trace: 6.564165E-002,6.564165E-002,6.564165E-002,6.564165E-002,6.564165E-002,6.564165E-002,6.564165E-002,6.564165E-002,6.564165E-002,6.564165E-002,
   **   ~~~   ** Air System Named = CENTRAL SYSTEM did not converge for energy
   **   ~~~   ** Check values should be zero. Most Recent values listed first.
   **   ~~~   ** Demand-to-Supply interface energy check value iteration history trace: 1300.752432,1300.752431,1300.752431,1300.752431,1300.752431,1300.752431,1300.752431,1300.752431,1300.752431,1300.752431,
   **   ~~~   ** Supply-to-demand interface deck 1 energy check value iteration history trace: 2419.567579,2419.567579,2419.567579,2419.567579,2419.567579,2419.567579,2419.567579,2419.567579,2419.567579,2419.567578,
   ** Warning ** SimHVAC: Maximum iterations (20) exceeded for all HVAC loops, at ANNUAL, 10/25 16:00 - 16:15
   **   ~~~   ** The solution for one or more of the Air Loop HVAC systems did not appear to converge
   **   ~~~   ** Air System Named = CENTRAL SYSTEM did not converge for mass flow rate
   **   ~~~   ** Check values should be zero. Most Recent values listed first.
   **   ~~~   ** Demand-to-Supply interface mass flow rate check value iteration history trace: 6.795795E-002,6.795795E-002,6.795795E-002,6.795795E-002,6.795795E-002,6.795795E-002,6.795795E-002,6.795795E-002,6.795795E-002,6.795795E-002,
   **   ~~~   ** Supply-to-demand interface deck 1 mass flow rate check value iteration history trace: 6.795795E-002,6.795795E-002,6.795795E-002,6.795795E-002,6.795795E-002,6.795795E-002,6.795795E-002,6.795795E-002,6.795795E-002,6.795795E-002,
   **   ~~~   ** Air System Named = CENTRAL SYSTEM did not converge for energy
   **   ~~~   ** Check values should be zero. Most Recent values listed first.
   **   ~~~   ** Demand-to-Supply interface energy check value iteration history trace: 1348.774636,1348.774636,1348.774636,1348.774636,1348.774636,1348.774635,1348.774635,1348.774635,1348.774635,1348.774635,
   **   ~~~   ** Supply-to-demand interface deck 1 energy check value iteration history trace: 2486.657823,2486.657823,2486.657823,2486.657823,2486.657823,2486.657823,2486.657823,2486.657822,2486.657822,2486.657822,
   ************* Simulation Error Summary *************
   ** Warning ** The following Report Variables were requested but not generated -- check.rdd file
   **   ~~~   ** Either the IDF did not contain these elements, the variable name is misspelled,
   **   ~~~   ** or the requested variable is an advanced output which requires Output : Diagnostics, DisplayAdvancedReportVariables;
   ************* Key=*, VarName=BASEBOARD TOTAL HEATING ENERGY, Frequency=
   ************* Key=*, VarName=WATER HEATER NATURALGAS ENERGY, Frequency=
   ************* Key=*, VarName=COOLING COIL TOTAL HEATING ENERGY, Frequency=
   ************* There are 34 unused schedules in input.
   ************* There are 388 unused week schedules in input.
   ************* There are 396 unused day schedules in input.
   ************* Use Output:Diagnostics,DisplayUnusedSchedules; to see them.
   *************
   ************* ===== Recurring Error Summary =====
   ************* The following recurring error messages occurred.
   *************
   *************  ** Warning ** "TOTAL HOT WATER LOAD" - Target water temperature should be less than or equal to the hot water temperature error continues...
   *************  **   ~~~   **   This error occurred 84791 total times;
   *************  **   ~~~   **   during Warmup 0 times;
   *************  **   ~~~   **   during Sizing 0 times.
   *************  **   ~~~   **   Max=11.497998  Min=5.540583E-004
   *************
   *************  ** Warning ** SimHVAC: Exceeding Maximum iterations for all HVAC loops, during ANNUAL continues
   *************  **   ~~~   **   This error occurred 1 total times;
   *************  **   ~~~   **   during Warmup 0 times;
   *************  **   ~~~   **   during Sizing 0 times.
   *************
   *************
   ************* ===== Final Error Summary =====
   ************* The following error categories occurred.  Consider correcting or noting.
   ************* Nominally Unused Constructions
   ************* ..The nominally unused constructions warning is provided to alert you to potential conditions that can cause
   ************* ..extra time during simulation. Each construction is calculated by the algorithm indicated in the HeatBalanceAlgorithm
   ************* ..object. You may remove the constructions indicated (when you use the DisplayExtraWarnings option).
   *************
   ************* EnergyPlus Warmup Error Summary. During Warmup: 1 Warning; 0 Severe Errors.
   ************* EnergyPlus Sizing Error Summary. During Sizing: 4 Warning; 0 Severe Errors.
   ************* EnergyPlus Completed Successfully-- 84823 Warning; 0 Severe Errors; Elapsed Time=00hr 05min 19.35sec
