Program Version,EnergyPlus, Version 22.2.0-c249759bad, YMD=2023.09.01 19:02,
   ************* Beginning Zone Sizing Calculations
   ** Warning ** ProcessScheduleInput: Schedule:Constant="ALWAYS ON DISCRETE", Schedule Type Limits Name="ONOFF" not found -- will not be validated
   ** Warning ** Foundation:Kiva="KIVA FOUNDATION", no Interior Horizontal Insulation Material Name defined
   **   ~~~   ** Interior Horizontal Insulation Depth will not be used.
   ** Warning ** CheckUsedConstructions: There are 15 nominally unused constructions in input.
   **   ~~~   ** Each Unused construction is shown.
   ************* Construction=INTERIOR FLOOR
   ************* Construction=INTERIOR WINDOW
   ************* Construction=EXTERIOR DOOR
   ************* Construction=INTERIOR DOOR
   ************* Construction=GABLE CONSTRUCTION
   ************* Construction=CRAWL_FLOOR
   ************* Construction=INSULATED PIPE
   ************* Construction=PLAIN PIPE
   ************* Construction=TDD PIPE
   ************* Construction=TDD DOME
   ************* Construction=TDD DIFFUSER
   ************* Construction=CRAWL WALL
   ************* Construction=CEILING-FLOOR-LAYER
   ************* Construction=SLAB CONSTRUCTION W FULL R10 INSULATION
   ************* Construction=SLAB CONSTRUCTION W FULL R5 INSULATION
   ** Warning ** GetDXCoils: Coil:Heating:DX:SingleSpeed="DX_HEATING_COIL" curve values
   **   ~~~   ** ... Defrost Energy Input Ratio Function of Temperature Curve Name = DEFROSTEIR output is not equal to 1.0 (+ or - 10%) at rated conditions.
   **   ~~~   ** ... Curve output at rated conditions = 0.152
   ************* Beginning System Sizing Calculations
   ************* Beginning Plant Sizing Calculations
   ** Warning ** SizeDXCoil Coil:Cooling:DX:SingleSpeed DX_COOLING_COIL
   **   ~~~   ** ...Gross Rated Total Cooling Capacity [W] will be limited by the maximum rated volume flow per rated total capacity ratio.
   **   ~~~   ** ...DX coil volume flow rate ( m3/s ) = 0.561565
   **   ~~~   ** ...Requested capacity ( W ) = 8161.029
   **   ~~~   ** ...Requested flow/capacity ratio ( m3/s/W ) = 6.881E-005
   **   ~~~   ** ...Maximum flow/capacity ratio ( m3/s/W ) = 6.041E-005
   **   ~~~   ** ...Adjusted capacity ( W ) = 9295.896
   ** Warning ** Coil:WaterHeating:AirToWaterHeatPump:Wrapped "HEAT PUMP WATER HEATER EVAPORATOR": Rated air volume flow rate per watt of rated total water heating capacity is out of range
   **   ~~~   ** Min Rated Vol Flow Per Watt=[4.027E-005], Rated Vol Flow Per Watt=[1.510E-004], Max Rated Vol Flow Per Watt=[8.056E-005]. See Input-Output Reference Manual for valid range.
   ************* SizeFan: : Potential issue with equipment sizing for Fan:OnOff HEAT PUMP WATER HEATER FAN
   **   ~~~   ** User-Specified Maximum Flow Rate [m3/s] = 0.22653
   **   ~~~   ** differs from Design Size Maximum Flow Rate [m3/s] = 7.55250E-002
   **   ~~~   ** This may, or may not, indicate mismatched component sizes.
   **   ~~~   ** Verify that the value entered is intended and is consistent with other components.
   ** Warning ** Water heater = WATER HEATER TANK:  Recovery Efficiency and Energy Factor could not be calculated during the test for standard ratings
   **   ~~~   ** Setpoint was never recovered and/or heater never turned on
   ** Warning ** Check input. Pump nominal power or motor efficiency is set to 0, for pump=MAINS PRESSURE
   ** Warning ** Output:Meter: invalid Key Name="ELECTRIC_RANGE:INTERIOREQUIPMENT:ELECTRICITY" - not found.
   ** Warning ** Output:Meter: invalid Key Name="ELECTRIC_DRYER:INTERIOREQUIPMENT:ELECTRICITY" - not found.
   ** Warning ** Output:Meter: invalid Key Name="HEATRECOVERY:ELECTRICITY" - not found.
   ** Warning ** Output:Meter: invalid Key Name="HEATING:NATURALGAS" - not found.
   ** Warning ** Output:Meter: invalid Key Name="WATERSYSTEMS:NATURALGAS" - not found.
   ** Warning ** Output:Meter: invalid Key Name="PROPANE:FACILITY" - not found.
   ** Warning ** Output:Meter: invalid Key Name="HEATING:PROPANE" - not found.
   ************* Testing Individual Branch Integrity
   ************* All Branches passed integrity testing
   ************* Testing Individual Supply Air Path Integrity
   ************* All Supply Air Paths passed integrity testing
   ************* Testing Individual Return Air Path Integrity
   ************* All Return Air Paths passed integrity testing
   ************* No node connection errors were found.
   ************* Beginning Simulation
   ** Warning ** AirflowNetwork::Solver::validate_distribution: Heat pump water heater is simulated along with an AirflowNetwork but is not included in the AirflowNetwork.
   ** Severe  ** CheckWarmupConvergence: Loads Initialization, Zone="LIVING" did not converge after 25 warmup days.
   **   ~~~   ** See Warmup Convergence Information in .eio file for details.
   **   ~~~   ** ...Environment(SizingPeriod)="EXTREME_WINTER"
   **   ~~~   ** ..Max Temp Comparison = 1.84E-003 vs Temperature Convergence Tolerance=5.00E-002 - Pass Convergence
   **   ~~~   ** ..Min Temp Comparison = 4.02E-002 vs Temperature Convergence Tolerance=5.00E-002 - Pass Convergence
   **   ~~~   ** ..Max Heat Load Comparison = 1.8191E-003 vs Loads Convergence Tolerance=5.00E-002 - Pass Convergence
   **   ~~~   ** ..Max Cool Load Comparison = 0.8849 vs Loads Convergence Tolerance=5.00E-002 - Fail Convergence
   ** Severe  ** CheckWarmupConvergence: Loads Initialization, Zone="ATTIC" did not converge after 25 warmup days.
   **   ~~~   ** ...Environment(SizingPeriod)="EXTREME_WINTER"
   **   ~~~   ** ..Max Temp Comparison = 0.10 vs Temperature Convergence Tolerance=5.00E-002 - Fail Convergence
   **   ~~~   ** ..Min Temp Comparison = 4.47E-002 vs Temperature Convergence Tolerance=5.00E-002 - Pass Convergence
   **   ~~~   ** ..Max Heat Load Comparison = 0.0000 vs Loads Convergence Tolerance=5.00E-002 - Pass Convergence
   **   ~~~   ** ..Max Cool Load Comparison = 0.0000 vs Loads Convergence Tolerance=5.00E-002 - Pass Convergence
   ** Warning ** CalcEquipmentFlowRates: "TOTAL HOT WATER LOAD" - Target water temperature is greater than the hot water temperature by (0.49 C)
   **   ~~~   **  Environment=EXTREME_WINTER, at Simulation time=12/22 03:45 - 04:00
   **   ~~~   ** ...target water temperature     = 53.33 C
   **   ~~~   ** ...hot water temperature        = 52.84 C
   **   ~~~   ** ...Target water temperature should be less than or equal to the hot water temperature. Verify temperature setpoints and schedules.
   ** Severe  ** CheckWarmupConvergence: Loads Initialization, Zone="LIVING" did not converge after 25 warmup days.
   **   ~~~   ** ...Environment(RunPeriod)="ANNUAL"
   **   ~~~   ** ..Max Temp Comparison = 5.57E-007 vs Temperature Convergence Tolerance=5.00E-002 - Pass Convergence
   **   ~~~   ** ..Min Temp Comparison = 3.82E-002 vs Temperature Convergence Tolerance=5.00E-002 - Pass Convergence
   **   ~~~   ** ..Max Heat Load Comparison = 3.9562E-002 vs Loads Convergence Tolerance=5.00E-002 - Pass Convergence
   **   ~~~   ** ..Max Cool Load Comparison = 0.1411 vs Loads Convergence Tolerance=5.00E-002 - Fail Convergence
   ** Severe  ** CheckWarmupConvergence: Loads Initialization, Zone="ATTIC" did not converge after 25 warmup days.
   **   ~~~   ** ...Environment(RunPeriod)="ANNUAL"
   **   ~~~   ** ..Max Temp Comparison = 6.97E-003 vs Temperature Convergence Tolerance=5.00E-002 - Pass Convergence
   **   ~~~   ** ..Min Temp Comparison = 5.59E-002 vs Temperature Convergence Tolerance=5.00E-002 - Fail Convergence
   **   ~~~   ** ..Max Heat Load Comparison = 0.0000 vs Loads Convergence Tolerance=5.00E-002 - Pass Convergence
   **   ~~~   ** ..Max Cool Load Comparison = 0.0000 vs Loads Convergence Tolerance=5.00E-002 - Pass Convergence
   ** Warning ** SimHVAC: Maximum iterations (20) exceeded for all HVAC loops, at ANNUAL, 02/03 09:00 - 09:15
   **   ~~~   ** The solution for one or more of the Air Loop HVAC systems did not appear to converge
   **   ~~~   ** Air System Named = CENTRAL SYSTEM did not converge for mass flow rate
   **   ~~~   ** Check values should be zero. Most Recent values listed first.
   **   ~~~   ** Demand-to-Supply interface mass flow rate check value iteration history trace: 5.914722E-002,5.914722E-002,5.914722E-002,5.914722E-002,5.914722E-002,5.914722E-002,5.914722E-002,5.914722E-002,5.914722E-002,5.914722E-002,
   **   ~~~   ** Supply-to-demand interface deck 1 mass flow rate check value iteration history trace: 5.914722E-002,5.914722E-002,5.914722E-002,5.914722E-002,5.914722E-002,5.914722E-002,5.914722E-002,5.914722E-002,5.914722E-002,5.914722E-002,
   **   ~~~   ** Air System Named = CENTRAL SYSTEM did not converge for energy
   **   ~~~   ** Check values should be zero. Most Recent values listed first.
   **   ~~~   ** Demand-to-Supply interface energy check value iteration history trace: 1172.043988,1172.043988,1172.043988,1172.043988,1172.043988,1172.043988,1172.043988,1172.043987,1172.043987,1172.043987,
   **   ~~~   ** Supply-to-demand interface deck 1 energy check value iteration history trace: 2095.371224,2095.371224,2095.371224,2095.371224,2095.371224,2095.371224,2095.371224,2095.371224,2095.371224,2095.371224,
   ** Warning ** SimHVAC: Maximum iterations (20) exceeded for all HVAC loops, at ANNUAL, 02/19 14:04 - 14:08
   **   ~~~   ** The solution for one or more of the Air Loop HVAC systems did not appear to converge
   **   ~~~   ** Air System Named = CENTRAL SYSTEM did not converge for mass flow rate
   **   ~~~   ** Check values should be zero. Most Recent values listed first.
   **   ~~~   ** Demand-to-Supply interface mass flow rate check value iteration history trace: 6.184389E-002,6.184389E-002,6.184389E-002,6.184389E-002,6.184389E-002,6.184389E-002,6.184389E-002,6.184389E-002,6.184389E-002,6.184389E-002,
   **   ~~~   ** Supply-to-demand interface deck 1 mass flow rate check value iteration history trace: 6.184389E-002,6.184389E-002,6.184389E-002,6.184389E-002,6.184389E-002,6.184389E-002,6.184389E-002,6.184389E-002,6.184389E-002,6.184389E-002,
   **   ~~~   ** Air System Named = CENTRAL SYSTEM did not converge for energy
   **   ~~~   ** Check values should be zero. Most Recent values listed first.
   **   ~~~   ** Demand-to-Supply interface energy check value iteration history trace: 1225.375295,1225.375295,1225.375295,1225.375295,1225.375295,1225.375295,1225.375295,1225.375295,1225.375295,1225.375295,
   **   ~~~   ** Supply-to-demand interface deck 1 energy check value iteration history trace: 2136.349288,2136.349288,2136.349287,2136.349287,2136.349287,2136.349287,2136.349287,2136.349287,2136.349287,2136.349287,
   ** Warning ** SimHVAC: Maximum iterations (20) exceeded for all HVAC loops, at ANNUAL, 03/04 08:00 - 08:15
   **   ~~~   ** The solution for one or more of the Air Loop HVAC systems did not appear to converge
   **   ~~~   ** Air System Named = CENTRAL SYSTEM did not converge for mass flow rate
   **   ~~~   ** Check values should be zero. Most Recent values listed first.
   **   ~~~   ** Demand-to-Supply interface mass flow rate check value iteration history trace: 4.973052E-002,4.973052E-002,4.973052E-002,4.973052E-002,4.973052E-002,4.973052E-002,4.973052E-002,4.973052E-002,4.973052E-002,4.973052E-002,
   **   ~~~   ** Supply-to-demand interface deck 1 mass flow rate check value iteration history trace: 4.973052E-002,4.973052E-002,4.973052E-002,4.973052E-002,4.973052E-002,4.973052E-002,4.973052E-002,4.973052E-002,4.973052E-002,4.973052E-002,
   **   ~~~   ** Air System Named = CENTRAL SYSTEM did not converge for energy
   **   ~~~   ** Check values should be zero. Most Recent values listed first.
   **   ~~~   ** Demand-to-Supply interface energy check value iteration history trace: 985.418572,985.418572,985.418572,985.418572,985.418572,985.418572,985.418572,985.418572,985.418572,985.418572,
   **   ~~~   ** Supply-to-demand interface deck 1 energy check value iteration history trace: 1759.687225,1759.687225,1759.687225,1759.687225,1759.687225,1759.687225,1759.687225,1759.687225,1759.687225,1759.687225,
   ** Warning ** SimHVAC: Maximum iterations (20) exceeded for all HVAC loops, at ANNUAL, 03/09 07:45 - 08:00
   **   ~~~   ** The solution for one or more of the Air Loop HVAC systems did not appear to converge
   **   ~~~   ** Air System Named = CENTRAL SYSTEM did not converge for mass flow rate
   **   ~~~   ** Check values should be zero. Most Recent values listed first.
   **   ~~~   ** Demand-to-Supply interface mass flow rate check value iteration history trace: 6.451368E-002,6.451368E-002,6.451368E-002,6.451368E-002,6.451368E-002,6.451368E-002,6.451368E-002,6.451368E-002,6.451368E-002,6.451368E-002,
   **   ~~~   ** Supply-to-demand interface deck 1 mass flow rate check value iteration history trace: 6.451368E-002,6.451368E-002,6.451368E-002,6.451368E-002,6.451368E-002,6.451368E-002,6.451368E-002,6.451368E-002,6.451368E-002,6.451368E-002,
   **   ~~~   ** Air System Named = CENTRAL SYSTEM did not converge for energy
   **   ~~~   ** Check values should be zero. Most Recent values listed first.
   **   ~~~   ** Demand-to-Supply interface energy check value iteration history trace: 1278.350516,1278.350516,1278.350516,1278.350516,1278.350516,1278.350516,1278.350516,1278.350516,1278.350516,1278.350516,
   **   ~~~   ** Supply-to-demand interface deck 1 energy check value iteration history trace: 2295.671927,2295.671927,2295.671927,2295.671927,2295.671927,2295.671927,2295.671927,2295.671927,2295.671927,2295.671927,
   ** Warning ** SimHVAC: Maximum iterations (20) exceeded for all HVAC loops, at ANNUAL, 03/28 07:00 - 07:15
   **   ~~~   ** The solution for one or more of the Air Loop HVAC systems did not appear to converge
   **   ~~~   ** Air System Named = CENTRAL SYSTEM did not converge for mass flow rate
   **   ~~~   ** Check values should be zero. Most Recent values listed first.
   **   ~~~   ** Demand-to-Supply interface mass flow rate check value iteration history trace: 5.395180E-002,5.395180E-002,5.395180E-002,5.395180E-002,5.395180E-002,5.395180E-002,5.395180E-002,5.395180E-002,5.395180E-002,5.395180E-002,
   **   ~~~   ** Supply-to-demand interface deck 1 mass flow rate check value iteration history trace: 5.395180E-002,5.395180E-002,5.395180E-002,5.395180E-002,5.395180E-002,5.395180E-002,5.395180E-002,5.395180E-002,5.395180E-002,5.395180E-002,
   **   ~~~   ** Air System Named = CENTRAL SYSTEM did not converge for energy
   **   ~~~   ** Check values should be zero. Most Recent values listed first.
   **   ~~~   ** Demand-to-Supply interface energy check value iteration history trace: 1069.116860,1069.116860,1069.116860,1069.116860,1069.116860,1069.116860,1069.116860,1069.116860,1069.116860,1069.116860,
   **   ~~~   ** Supply-to-demand interface deck 1 energy check value iteration history trace: 1980.324498,1980.324498,1980.324498,1980.324498,1980.324498,1980.324497,1980.324497,1980.324497,1980.324497,1980.324497,
   ** Warning ** SimHVAC: Maximum iterations (20) exceeded for all HVAC loops, at ANNUAL, 04/11 06:15 - 06:30
   **   ~~~   ** The solution for one or more of the Air Loop HVAC systems did not appear to converge
   **   ~~~   ** Air System Named = CENTRAL SYSTEM did not converge for mass flow rate
   **   ~~~   ** Check values should be zero. Most Recent values listed first.
   **   ~~~   ** Demand-to-Supply interface mass flow rate check value iteration history trace: 6.204211E-002,6.204211E-002,6.204211E-002,6.204211E-002,6.204211E-002,6.204211E-002,6.204211E-002,6.204211E-002,6.204211E-002,6.204211E-002,
   **   ~~~   ** Supply-to-demand interface deck 1 mass flow rate check value iteration history trace: 6.204211E-002,6.204211E-002,6.204211E-002,6.204211E-002,6.204211E-002,6.204211E-002,6.204211E-002,6.204211E-002,6.204211E-002,6.204211E-002,
   **   ~~~   ** Air System Named = CENTRAL SYSTEM did not converge for energy
   **   ~~~   ** Check values should be zero. Most Recent values listed first.
   **   ~~~   ** Demand-to-Supply interface energy check value iteration history trace: 1219.730759,1219.730759,1219.730759,1219.730759,1219.730759,1219.730759,1219.730759,1219.730759,1219.730758,1219.730758,
   **   ~~~   ** Supply-to-demand interface deck 1 energy check value iteration history trace: 2167.576525,2167.576525,2167.576524,2167.576524,2167.576524,2167.576524,2167.576524,2167.576524,2167.576524,2167.576524,
   ** Warning ** SimHVAC: Maximum iterations (20) exceeded for all HVAC loops, at ANNUAL, 04/11 06:45 - 07:00
   **   ~~~   ** The solution for one or more of the Air Loop HVAC systems did not appear to converge
   **   ~~~   ** Air System Named = CENTRAL SYSTEM did not converge for mass flow rate
   **   ~~~   ** Check values should be zero. Most Recent values listed first.
   **   ~~~   ** Demand-to-Supply interface mass flow rate check value iteration history trace: 5.710155E-002,5.710155E-002,5.710155E-002,5.710155E-002,5.710155E-002,5.710155E-002,5.710155E-002,5.710155E-002,5.710155E-002,5.710155E-002,
   **   ~~~   ** Supply-to-demand interface deck 1 mass flow rate check value iteration history trace: 5.710155E-002,5.710155E-002,5.710155E-002,5.710155E-002,5.710155E-002,5.710155E-002,5.710155E-002,5.710155E-002,5.710155E-002,5.710155E-002,
   **   ~~~   ** Air System Named = CENTRAL SYSTEM did not converge for energy
   **   ~~~   ** Check values should be zero. Most Recent values listed first.
   **   ~~~   ** Demand-to-Supply interface energy check value iteration history trace: 1131.756709,1131.756709,1131.756709,1131.756709,1131.756709,1131.756709,1131.756709,1131.756709,1131.756709,1131.756709,
   **   ~~~   ** Supply-to-demand interface deck 1 energy check value iteration history trace: 2014.148553,2014.148552,2014.148552,2014.148552,2014.148552,2014.148552,2014.148552,2014.148552,2014.148552,2014.148552,
   ** Warning ** SimHVAC: Maximum iterations (20) exceeded for all HVAC loops, at ANNUAL, 04/27 08:53 - 08:55
   **   ~~~   ** The solution for one or more of the Air Loop HVAC systems did not appear to converge
   **   ~~~   ** Air System Named = CENTRAL SYSTEM did not converge for mass flow rate
   **   ~~~   ** Check values should be zero. Most Recent values listed first.
   **   ~~~   ** Demand-to-Supply interface mass flow rate check value iteration history trace: 0.327876,0.327876,0.327876,0.327876,0.327876,0.327876,0.327876,0.327876,0.327876,0.327876,
   **   ~~~   ** Supply-to-demand interface deck 1 mass flow rate check value iteration history trace: 0.327876,0.327876,0.327876,0.327876,0.327876,0.327876,0.327876,0.327876,0.327876,0.327876,
   **   ~~~   ** Air System Named = CENTRAL SYSTEM did not converge for energy
   **   ~~~   ** Check values should be zero. Most Recent values listed first.
   **   ~~~   ** Demand-to-Supply interface energy check value iteration history trace: 7814.082923,7814.082924,7814.082925,7814.082926,7814.082927,7814.082928,7814.082929,7814.082930,7814.082931,7814.082932,
   **   ~~~   ** Supply-to-demand interface deck 1 energy check value iteration history trace: 2722.893551,2722.893551,2722.893551,2722.893552,2722.893552,2722.893553,2722.893553,2722.893553,2722.893554,2722.893554,
   ** Warning ** SimHVAC: Maximum iterations (20) exceeded for all HVAC loops, at ANNUAL, 04/27 09:05 - 09:07
   **   ~~~   ** The solution for one or more of the Air Loop HVAC systems did not appear to converge
   **   ~~~   ** Air System Named = CENTRAL SYSTEM did not converge for mass flow rate
   **   ~~~   ** Check values should be zero. Most Recent values listed first.
   **   ~~~   ** Demand-to-Supply interface mass flow rate check value iteration history trace: 0.427399,0.427399,0.427399,0.427399,0.427399,0.427399,0.427399,0.427399,0.427399,0.427399,
   **   ~~~   ** Supply-to-demand interface deck 1 mass flow rate check value iteration history trace: 0.427399,0.427399,0.427399,0.427399,0.427399,0.427399,0.427399,0.427399,0.427399,0.427399,
   **   ~~~   ** Air System Named = CENTRAL SYSTEM did not converge for energy
   **   ~~~   ** Check values should be zero. Most Recent values listed first.
   **   ~~~   ** Demand-to-Supply interface energy check value iteration history trace: 10184.158445,10184.158446,10184.158448,10184.158449,10184.158451,10184.158452,10184.158454,10184.158455,10184.158457,10184.158458,
   **   ~~~   ** Supply-to-demand interface deck 1 energy check value iteration history trace: 3571.448992,3571.448992,3571.448993,3571.448994,3571.448994,3571.448995,3571.448995,3571.448996,3571.448996,3571.448997,
   ** Warning ** SimHVAC: Maximum iterations (20) exceeded for all HVAC loops, at ANNUAL, 10/26 08:00 - 08:15
   **   ~~~   ** The solution for one or more of the Air Loop HVAC systems did not appear to converge
   **   ~~~   ** Air System Named = CENTRAL SYSTEM did not converge for mass flow rate
   **   ~~~   ** Check values should be zero. Most Recent values listed first.
   **   ~~~   ** Demand-to-Supply interface mass flow rate check value iteration history trace: 5.740788E-002,5.740788E-002,5.740788E-002,5.740788E-002,5.740788E-002,5.740788E-002,5.740788E-002,5.740788E-002,5.740788E-002,5.740788E-002,
   **   ~~~   ** Supply-to-demand interface deck 1 mass flow rate check value iteration history trace: 5.740788E-002,5.740788E-002,5.740788E-002,5.740788E-002,5.740788E-002,5.740788E-002,5.740788E-002,5.740788E-002,5.740788E-002,5.740788E-002,
   **   ~~~   ** Air System Named = CENTRAL SYSTEM did not converge for energy
   **   ~~~   ** Check values should be zero. Most Recent values listed first.
   **   ~~~   ** Demand-to-Supply interface energy check value iteration history trace: 1118.439320,1118.439320,1118.439320,1118.439320,1118.439320,1118.439320,1118.439320,1118.439320,1118.439319,1118.439319,
   **   ~~~   ** Supply-to-demand interface deck 1 energy check value iteration history trace: 1975.505319,1975.505319,1975.505319,1975.505319,1975.505318,1975.505318,1975.505318,1975.505318,1975.505318,1975.505318,
   ** Warning ** SimHVAC: Maximum iterations (20) exceeded for all HVAC loops, at ANNUAL, 11/22 08:30 - 08:45
   **   ~~~   ** The solution for one or more of the Air Loop HVAC systems did not appear to converge
   **   ~~~   ** Air System Named = CENTRAL SYSTEM did not converge for mass flow rate
   **   ~~~   ** Check values should be zero. Most Recent values listed first.
   **   ~~~   ** Demand-to-Supply interface mass flow rate check value iteration history trace: 6.835148E-002,6.835148E-002,6.835148E-002,6.835148E-002,6.835148E-002,6.835148E-002,6.835148E-002,6.835148E-002,6.835148E-002,6.835148E-002,
   **   ~~~   ** Supply-to-demand interface deck 1 mass flow rate check value iteration history trace: 6.835148E-002,6.835148E-002,6.835148E-002,6.835148E-002,6.835148E-002,6.835148E-002,6.835148E-002,6.835148E-002,6.835148E-002,6.835148E-002,
   **   ~~~   ** Air System Named = CENTRAL SYSTEM did not converge for energy
   **   ~~~   ** Check values should be zero. Most Recent values listed first.
   **   ~~~   ** Demand-to-Supply interface energy check value iteration history trace: 1354.387407,1354.387406,1354.387406,1354.387406,1354.387406,1354.387406,1354.387406,1354.387406,1354.387406,1354.387406,
   **   ~~~   ** Supply-to-demand interface deck 1 energy check value iteration history trace: 2346.905186,2346.905186,2346.905186,2346.905186,2346.905186,2346.905186,2346.905186,2346.905186,2346.905186,2346.905185,
   ** Warning ** SimHVAC: Maximum iterations (20) exceeded for all HVAC loops, at ANNUAL, 11/24 09:04 - 09:08
   **   ~~~   ** The solution for one or more of the Air Loop HVAC systems did not appear to converge
   **   ~~~   ** Air System Named = CENTRAL SYSTEM did not converge for mass flow rate
   **   ~~~   ** Check values should be zero. Most Recent values listed first.
   **   ~~~   ** Demand-to-Supply interface mass flow rate check value iteration history trace: 5.535230E-002,5.535230E-002,5.535230E-002,5.535230E-002,5.535230E-002,5.535230E-002,5.535230E-002,5.535230E-002,5.535230E-002,5.535230E-002,
   **   ~~~   ** Supply-to-demand interface deck 1 mass flow rate check value iteration history trace: 5.535230E-002,5.535230E-002,5.535230E-002,5.535230E-002,5.535230E-002,5.535230E-002,5.535230E-002,5.535230E-002,5.535230E-002,5.535230E-002,
   **   ~~~   ** Air System Named = CENTRAL SYSTEM did not converge for energy
   **   ~~~   ** Check values should be zero. Most Recent values listed first.
   **   ~~~   ** Demand-to-Supply interface energy check value iteration history trace: 1089.457678,1089.457677,1089.457677,1089.457677,1089.457677,1089.457677,1089.457677,1089.457677,1089.457677,1089.457677,
   **   ~~~   ** Supply-to-demand interface deck 1 energy check value iteration history trace: 1960.232978,1960.232978,1960.232978,1960.232978,1960.232978,1960.232978,1960.232978,1960.232977,1960.232977,1960.232977,
   ** Warning ** SimHVAC: Maximum iterations (20) exceeded for all HVAC loops, at ANNUAL, 12/02 10:00 - 10:02
   **   ~~~   ** The solution for one or more of the Air Loop HVAC systems did not appear to converge
   **   ~~~   ** Air System Named = CENTRAL SYSTEM did not converge for mass flow rate
   **   ~~~   ** Check values should be zero. Most Recent values listed first.
   **   ~~~   ** Demand-to-Supply interface mass flow rate check value iteration history trace: 7.875290E-002,7.875290E-002,7.875290E-002,7.875290E-002,7.875290E-002,7.875290E-002,7.875290E-002,7.875290E-002,7.875290E-002,7.875290E-002,
   **   ~~~   ** Supply-to-demand interface deck 1 mass flow rate check value iteration history trace: 7.875290E-002,7.875290E-002,7.875290E-002,7.875290E-002,7.875290E-002,7.875290E-002,7.875290E-002,7.875290E-002,7.875290E-002,7.875290E-002,
   **   ~~~   ** Air System Named = CENTRAL SYSTEM did not converge for energy
   **   ~~~   ** Check values should be zero. Most Recent values listed first.
   **   ~~~   ** Demand-to-Supply interface energy check value iteration history trace: 1560.628839,1560.628839,1560.628839,1560.628839,1560.628839,1560.628839,1560.628839,1560.628838,1560.628838,1560.628838,
   **   ~~~   ** Supply-to-demand interface deck 1 energy check value iteration history trace: 2470.492886,2470.492886,2470.492886,2470.492885,2470.492885,2470.492885,2470.492885,2470.492885,2470.492885,2470.492885,
   ** Warning ** SimHVAC: Maximum iterations (20) exceeded for all HVAC loops, at ANNUAL, 12/06 10:15 - 10:17
   **   ~~~   ** The solution for one or more of the Air Loop HVAC systems did not appear to converge
   **   ~~~   ** Air System Named = CENTRAL SYSTEM did not converge for mass flow rate
   **   ~~~   ** Check values should be zero. Most Recent values listed first.
   **   ~~~   ** Demand-to-Supply interface mass flow rate check value iteration history trace: 5.856665E-002,5.856665E-002,5.856665E-002,5.856665E-002,5.856665E-002,5.856665E-002,5.856665E-002,5.856665E-002,5.856665E-002,5.856665E-002,
   **   ~~~   ** Supply-to-demand interface deck 1 mass flow rate check value iteration history trace: 5.856665E-002,5.856665E-002,5.856665E-002,5.856665E-002,5.856665E-002,5.856665E-002,5.856665E-002,5.856665E-002,5.856665E-002,5.856665E-002,
   **   ~~~   ** Air System Named = CENTRAL SYSTEM did not converge for energy
   **   ~~~   ** Check values should be zero. Most Recent values listed first.
   **   ~~~   ** Demand-to-Supply interface energy check value iteration history trace: 1159.582792,1159.582792,1159.582792,1159.582792,1159.582792,1159.582792,1159.582791,1159.582791,1159.582791,1159.582791,
   **   ~~~   ** Supply-to-demand interface deck 1 energy check value iteration history trace: 1889.930035,1889.930035,1889.930035,1889.930034,1889.930034,1889.930034,1889.930034,1889.930034,1889.930034,1889.930034,
   ************* Simulation Error Summary *************
   ** Warning ** The following Report Variables were requested but not generated -- check.rdd file
   **   ~~~   ** Either the IDF did not contain these elements, the variable name is misspelled,
   **   ~~~   ** or the requested variable is an advanced output which requires Output : Diagnostics, DisplayAdvancedReportVariables;
   ************* Key=*, VarName=BASEBOARD TOTAL HEATING ENERGY, Frequency=
   ************* Key=*, VarName=WATER HEATER NATURALGAS ENERGY, Frequency=
   ************* Key=*, VarName=COOLING COIL TOTAL HEATING ENERGY, Frequency=
   ************* There are 34 unused schedules in input.
   ************* There are 388 unused week schedules in input.
   ************* There are 396 unused day schedules in input.
   ************* Use Output:Diagnostics,DisplayUnusedSchedules; to see them.
   *************
   ************* ===== Recurring Error Summary =====
   ************* The following recurring error messages occurred.
   *************
   *************  ** Warning ** "TOTAL HOT WATER LOAD" - Target water temperature should be less than or equal to the hot water temperature error continues...
   *************  **   ~~~   **   This error occurred 77047 total times;
   *************  **   ~~~   **   during Warmup 0 times;
   *************  **   ~~~   **   during Sizing 0 times.
   *************  **   ~~~   **   Max=6.701877  Min=6.013102E-005
   *************
   *************  ** Warning ** SimHVAC: Exceeding Maximum iterations for all HVAC loops, during ANNUAL continues
   *************  **   ~~~   **   This error occurred 2 total times;
   *************  **   ~~~   **   during Warmup 0 times;
   *************  **   ~~~   **   during Sizing 0 times.
   *************
   *************
   ************* ===== Final Error Summary =====
   ************* The following error categories occurred.  Consider correcting or noting.
   ************* Loads Initialization did not Converge
   ************* ..1) very high thermal mass such as very thick concrete (solution: increase max number of warmup
   ************* ..   days in the BUILDING object);
   ************* ..2) moderate mass and inadequate space conditioning such that the building keeps getting warmer
   ************* ..   and warmer on successive days (solution: add HVAC, check building thermal properties,
   ************* ..   check if infiltration is included, make sure HVAC properly controlled);
   ************* ..3) a soil layer modeled below the concrete slab - (solution remove this layer and read about
   ************* ..   ground temperatures in the Auxiliary Programs document).
   ************* ..4) unreasonable (too small) limits in the BUILDING object for temperature (.4 default) or
   ************* ..   loads tolerances (.04 default)
   ************* Nominally Unused Constructions
   ************* ..The nominally unused constructions warning is provided to alert you to potential conditions that can cause
   ************* ..extra time during simulation. Each construction is calculated by the algorithm indicated in the HeatBalanceAlgorithm
   ************* ..object. You may remove the constructions indicated (when you use the DisplayExtraWarnings option).
   *************
   ************* EnergyPlus Warmup Error Summary. During Warmup: 1 Warning; 4 Severe Errors.
   ************* EnergyPlus Sizing Error Summary. During Sizing: 4 Warning; 0 Severe Errors.
   ************* EnergyPlus Completed Successfully-- 77081 Warning; 4 Severe Errors; Elapsed Time=00hr 02min  4.35sec
