Program Version,EnergyPlus, Version 22.2.0-c249759bad, YMD=2023.09.01 14:50,
   ************* Beginning Zone Sizing Calculations
   ** Warning ** ProcessScheduleInput: Schedule:Constant="ALWAYS ON DISCRETE", Schedule Type Limits Name="ONOFF" not found -- will not be validated
   ** Warning ** Foundation:Kiva="KIVA FOUNDATION", no Interior Horizontal Insulation Material Name defined
   **   ~~~   ** Interior Horizontal Insulation Depth will not be used.
   ** Warning ** CheckUsedConstructions: There are 15 nominally unused constructions in input.
   **   ~~~   ** Each Unused construction is shown.
   ************* Construction=INTERIOR FLOOR
   ************* Construction=INTERIOR WINDOW
   ************* Construction=EXTERIOR DOOR
   ************* Construction=INTERIOR DOOR
   ************* Construction=GABLE CONSTRUCTION
   ************* Construction=CRAWL_FLOOR
   ************* Construction=INSULATED PIPE
   ************* Construction=PLAIN PIPE
   ************* Construction=TDD PIPE
   ************* Construction=TDD DOME
   ************* Construction=TDD DIFFUSER
   ************* Construction=CRAWL WALL
   ************* Construction=CEILING-FLOOR-LAYER
   ************* Construction=SLAB CONSTRUCTION W FULL R10 INSULATION
   ************* Construction=SLAB CONSTRUCTION W FULL R5 INSULATION
   ** Warning ** GetDXCoils: Coil:Heating:DX:SingleSpeed="DX_HEATING_COIL" curve values
   **   ~~~   ** ... Defrost Energy Input Ratio Function of Temperature Curve Name = DEFROSTEIR output is not equal to 1.0 (+ or - 10%) at rated conditions.
   **   ~~~   ** ... Curve output at rated conditions = 0.152
   ************* Beginning System Sizing Calculations
   ************* Beginning Plant Sizing Calculations
   ** Warning ** SizeDXCoil Coil:Cooling:DX:SingleSpeed DX_COOLING_COIL
   **   ~~~   ** ...Gross Rated Total Cooling Capacity [W] will be limited by the maximum rated volume flow per rated total capacity ratio.
   **   ~~~   ** ...DX coil volume flow rate ( m3/s ) = 0.426999
   **   ~~~   ** ...Requested capacity ( W ) = 6596.546
   **   ~~~   ** ...Requested flow/capacity ratio ( m3/s/W ) = 6.473E-005
   **   ~~~   ** ...Maximum flow/capacity ratio ( m3/s/W ) = 6.041E-005
   **   ~~~   ** ...Adjusted capacity ( W ) = 7068.350
   ** Warning ** Coil:WaterHeating:AirToWaterHeatPump:Wrapped "HEAT PUMP WATER HEATER EVAPORATOR": Rated air volume flow rate per watt of rated total water heating capacity is out of range
   **   ~~~   ** Min Rated Vol Flow Per Watt=[4.027E-005], Rated Vol Flow Per Watt=[1.386E-004], Max Rated Vol Flow Per Watt=[8.056E-005]. See Input-Output Reference Manual for valid range.
   ** Warning ** Water heater = WATER HEATER TANK:  Recovery Efficiency and Energy Factor could not be calculated during the test for standard ratings
   **   ~~~   ** Setpoint was never recovered and/or heater never turned on
   ** Warning ** Check input. Pump nominal power or motor efficiency is set to 0, for pump=MAINS PRESSURE
   ** Warning ** Output:Meter: invalid Key Name="ELECTRIC_RANGE:INTERIOREQUIPMENT:ELECTRICITY" - not found.
   ** Warning ** Output:Meter: invalid Key Name="ELECTRIC_DRYER:INTERIOREQUIPMENT:ELECTRICITY" - not found.
   ** Warning ** Output:Meter: invalid Key Name="HEATRECOVERY:ELECTRICITY" - not found.
   ** Warning ** Output:Meter: invalid Key Name="HEATING:NATURALGAS" - not found.
   ** Warning ** Output:Meter: invalid Key Name="WATERSYSTEMS:NATURALGAS" - not found.
   ** Warning ** Output:Meter: invalid Key Name="PROPANE:FACILITY" - not found.
   ** Warning ** Output:Meter: invalid Key Name="HEATING:PROPANE" - not found.
   ************* Testing Individual Branch Integrity
   ************* All Branches passed integrity testing
   ************* Testing Individual Supply Air Path Integrity
   ************* All Supply Air Paths passed integrity testing
   ************* Testing Individual Return Air Path Integrity
   ************* All Return Air Paths passed integrity testing
   ************* No node connection errors were found.
   ************* Beginning Simulation
   ** Warning ** AirflowNetwork::Solver::validate_distribution: Heat pump water heater is simulated along with an AirflowNetwork but is not included in the AirflowNetwork.
   ** Warning ** CalcEquipmentFlowRates: "TOTAL HOT WATER LOAD" - Target water temperature is greater than the hot water temperature by (1.66 C)
   **   ~~~   **  Environment=EXTREME_WINTER, at Simulation time=01/27 06:00 - 06:15
   **   ~~~   ** ...target water temperature     = 53.33 C
   **   ~~~   ** ...hot water temperature        = 51.68 C
   **   ~~~   ** ...Target water temperature should be less than or equal to the hot water temperature. Verify temperature setpoints and schedules.
   ** Warning ** SimHVAC: Maximum iterations (20) exceeded for all HVAC loops, at ANNUAL, 01/23 18:30 - 18:35
   **   ~~~   ** The solution for one or more of the Air Loop HVAC systems did not appear to converge
   **   ~~~   ** Air System Named = CENTRAL SYSTEM did not converge for mass flow rate
   **   ~~~   ** Check values should be zero. Most Recent values listed first.
   **   ~~~   ** Demand-to-Supply interface mass flow rate check value iteration history trace: 0.109051,0.109051,0.109051,0.109051,0.109051,0.109051,0.109051,0.109051,0.109051,0.109051,
   **   ~~~   ** Supply-to-demand interface deck 1 mass flow rate check value iteration history trace: 0.109051,0.109051,0.109051,0.109051,0.109051,0.109051,0.109051,0.109051,0.109051,0.109051,
   **   ~~~   ** Air System Named = CENTRAL SYSTEM did not converge for energy
   **   ~~~   ** Check values should be zero. Most Recent values listed first.
   **   ~~~   ** Demand-to-Supply interface energy check value iteration history trace: 2155.027174,2155.027174,2155.027174,2155.027174,2155.027174,2155.027174,2155.027173,2155.027173,2155.027173,2155.027173,
   **   ~~~   ** Supply-to-demand interface deck 1 energy check value iteration history trace: 3291.820055,3291.820055,3291.820055,3291.820054,3291.820054,3291.820054,3291.820054,3291.820054,3291.820053,3291.820053,
   ** Warning ** SimHVAC: Maximum iterations (20) exceeded for all HVAC loops, at ANNUAL, 02/05 21:15 - 21:30
   **   ~~~   ** The solution for one or more of the Air Loop HVAC systems did not appear to converge
   **   ~~~   ** Air System Named = CENTRAL SYSTEM did not converge for mass flow rate
   **   ~~~   ** Check values should be zero. Most Recent values listed first.
   **   ~~~   ** Demand-to-Supply interface mass flow rate check value iteration history trace: 0.101748,0.101748,0.101748,0.101748,0.101748,0.101748,0.101748,0.101748,0.101748,0.101748,
   **   ~~~   ** Supply-to-demand interface deck 1 mass flow rate check value iteration history trace: 0.101748,0.101748,0.101748,0.101748,0.101748,0.101748,0.101748,0.101748,0.101748,0.101748,
   **   ~~~   ** Air System Named = CENTRAL SYSTEM did not converge for energy
   **   ~~~   ** Check values should be zero. Most Recent values listed first.
   **   ~~~   ** Demand-to-Supply interface energy check value iteration history trace: 2016.823913,2016.823913,2016.823912,2016.823912,2016.823912,2016.823912,2016.823912,2016.823912,2016.823911,2016.823911,
   **   ~~~   ** Supply-to-demand interface deck 1 energy check value iteration history trace: 2963.308612,2963.308612,2963.308612,2963.308611,2963.308611,2963.308611,2963.308611,2963.308610,2963.308610,2963.308610,
   ** Warning ** SimHVAC: Maximum iterations (20) exceeded for all HVAC loops, at ANNUAL, 02/11 10:38 - 10:45
   **   ~~~   ** The solution for one or more of the Air Loop HVAC systems did not appear to converge
   **   ~~~   ** Air System Named = CENTRAL SYSTEM did not converge for mass flow rate
   **   ~~~   ** Check values should be zero. Most Recent values listed first.
   **   ~~~   ** Demand-to-Supply interface mass flow rate check value iteration history trace: 5.455980E-002,5.455980E-002,5.455980E-002,5.455980E-002,5.455980E-002,5.455980E-002,5.455980E-002,5.455980E-002,5.455980E-002,5.455980E-002,
   **   ~~~   ** Supply-to-demand interface deck 1 mass flow rate check value iteration history trace: 5.455980E-002,5.455980E-002,5.455980E-002,5.455980E-002,5.455980E-002,5.455980E-002,5.455980E-002,5.455980E-002,5.455980E-002,5.455980E-002,
   **   ~~~   ** Air System Named = CENTRAL SYSTEM did not converge for energy
   **   ~~~   ** Check values should be zero. Most Recent values listed first.
   **   ~~~   ** Demand-to-Supply interface energy check value iteration history trace: 1075.197974,1075.197974,1075.197974,1075.197974,1075.197974,1075.197974,1075.197974,1075.197974,1075.197974,1075.197974,
   **   ~~~   ** Supply-to-demand interface deck 1 energy check value iteration history trace: 2046.317314,2046.317314,2046.317314,2046.317314,2046.317314,2046.317313,2046.317313,2046.317313,2046.317313,2046.317313,
   ** Warning ** Temperature out of range [-100. to 200.] (PsyPsatFnTemp)
   **   ~~~   **  Routine=PsyTwbFnTdbWPb, Environment=ANNUAL, at Simulation time=02/22 10:45 - 10:50
   **   ~~~   **  Input Temperature=-104.85
   ** Warning ** SimHVAC: Maximum iterations (20) exceeded for all HVAC loops, at ANNUAL, 03/12 10:19 - 10:22
   **   ~~~   ** The solution for one or more of the Air Loop HVAC systems did not appear to converge
   **   ~~~   ** Air System Named = CENTRAL SYSTEM did not converge for mass flow rate
   **   ~~~   ** Check values should be zero. Most Recent values listed first.
   **   ~~~   ** Demand-to-Supply interface mass flow rate check value iteration history trace: 7.897449E-002,7.897449E-002,7.897449E-002,7.897449E-002,7.897449E-002,7.897449E-002,7.897449E-002,7.897449E-002,7.897449E-002,7.897449E-002,
   **   ~~~   ** Supply-to-demand interface deck 1 mass flow rate check value iteration history trace: 7.897449E-002,7.897449E-002,7.897449E-002,7.897449E-002,7.897449E-002,7.897449E-002,7.897449E-002,7.897449E-002,7.897449E-002,7.897449E-002,
   **   ~~~   ** Air System Named = CENTRAL SYSTEM did not converge for energy
   **   ~~~   ** Check values should be zero. Most Recent values listed first.
   **   ~~~   ** Demand-to-Supply interface energy check value iteration history trace: 1565.040080,1565.040080,1565.040080,1565.040080,1565.040080,1565.040080,1565.040080,1565.040080,1565.040080,1565.040080,
   **   ~~~   ** Supply-to-demand interface deck 1 energy check value iteration history trace: 2782.852407,2782.852407,2782.852407,2782.852406,2782.852406,2782.852406,2782.852406,2782.852406,2782.852406,2782.852406,
   ** Warning ** SimHVAC: Maximum iterations (20) exceeded for all HVAC loops, at ANNUAL, 03/18 08:00 - 08:15
   **   ~~~   ** The solution for one or more of the Air Loop HVAC systems did not appear to converge
   **   ~~~   ** Air System Named = CENTRAL SYSTEM did not converge for mass flow rate
   **   ~~~   ** Check values should be zero. Most Recent values listed first.
   **   ~~~   ** Demand-to-Supply interface mass flow rate check value iteration history trace: 6.886193E-002,6.886193E-002,6.886193E-002,6.886193E-002,6.886193E-002,6.886193E-002,6.886193E-002,6.886193E-002,6.886193E-002,6.886193E-002,
   **   ~~~   ** Supply-to-demand interface deck 1 mass flow rate check value iteration history trace: 6.886193E-002,6.886193E-002,6.886193E-002,6.886193E-002,6.886193E-002,6.886193E-002,6.886193E-002,6.886193E-002,6.886193E-002,6.886193E-002,
   **   ~~~   ** Air System Named = CENTRAL SYSTEM did not converge for energy
   **   ~~~   ** Check values should be zero. Most Recent values listed first.
   **   ~~~   ** Demand-to-Supply interface energy check value iteration history trace: 1367.728443,1367.728443,1367.728443,1367.728443,1367.728443,1367.728443,1367.728443,1367.728443,1367.728443,1367.728443,
   **   ~~~   ** Supply-to-demand interface deck 1 energy check value iteration history trace: 2399.368259,2399.368259,2399.368259,2399.368259,2399.368259,2399.368259,2399.368259,2399.368259,2399.368259,2399.368259,
   ** Warning ** SimHVAC: Maximum iterations (20) exceeded for all HVAC loops, at ANNUAL, 11/09 19:55 - 20:00
   **   ~~~   ** The solution for one or more of the Air Loop HVAC systems did not appear to converge
   **   ~~~   ** Air System Named = CENTRAL SYSTEM did not converge for mass flow rate
   **   ~~~   ** Check values should be zero. Most Recent values listed first.
   **   ~~~   ** Demand-to-Supply interface mass flow rate check value iteration history trace: 0.322047,0.322047,0.322047,0.322047,0.322047,0.322047,0.322047,0.322047,0.322047,0.322047,
   **   ~~~   ** Supply-to-demand interface deck 1 mass flow rate check value iteration history trace: 0.322047,0.322047,0.322047,0.322047,0.322047,0.322047,0.322047,0.322047,0.322047,0.322047,
   **   ~~~   ** Air System Named = CENTRAL SYSTEM did not converge for energy
   **   ~~~   ** Check values should be zero. Most Recent values listed first.
   **   ~~~   ** Demand-to-Supply interface energy check value iteration history trace: 7739.974127,7739.974129,7739.974131,7739.974133,7739.974135,7739.974137,7739.974139,7739.974141,7739.974143,7739.974145,
   **   ~~~   ** Supply-to-demand interface deck 1 energy check value iteration history trace: 4011.706114,4011.706115,4011.706116,4011.706117,4011.706118,4011.706119,4011.706120,4011.706121,4011.706122,4011.706123,
   ** Warning ** SimHVAC: Maximum iterations (20) exceeded for all HVAC loops, at ANNUAL, 11/12 08:30 - 08:35
   **   ~~~   ** The solution for one or more of the Air Loop HVAC systems did not appear to converge
   **   ~~~   ** Air System Named = CENTRAL SYSTEM did not converge for mass flow rate
   **   ~~~   ** Check values should be zero. Most Recent values listed first.
   **   ~~~   ** Demand-to-Supply interface mass flow rate check value iteration history trace: 6.795033E-002,6.795033E-002,6.795033E-002,6.795033E-002,6.795033E-002,6.795033E-002,6.795033E-002,6.795033E-002,6.795033E-002,6.795033E-002,
   **   ~~~   ** Supply-to-demand interface deck 1 mass flow rate check value iteration history trace: 6.795033E-002,6.795033E-002,6.795033E-002,6.795033E-002,6.795033E-002,6.795033E-002,6.795033E-002,6.795033E-002,6.795033E-002,6.795033E-002,
   **   ~~~   ** Air System Named = CENTRAL SYSTEM did not converge for energy
   **   ~~~   ** Check values should be zero. Most Recent values listed first.
   **   ~~~   ** Demand-to-Supply interface energy check value iteration history trace: 1334.594132,1334.594132,1334.594132,1334.594132,1334.594132,1334.594132,1334.594132,1334.594132,1334.594131,1334.594131,
   **   ~~~   ** Supply-to-demand interface deck 1 energy check value iteration history trace: 2415.766999,2415.766999,2415.766999,2415.766999,2415.766998,2415.766998,2415.766998,2415.766998,2415.766998,2415.766998,
   ** Warning ** SimHVAC: Maximum iterations (20) exceeded for all HVAC loops, at ANNUAL, 11/15 21:10 - 21:15
   **   ~~~   ** The solution for one or more of the Air Loop HVAC systems did not appear to converge
   **   ~~~   ** Air System Named = CENTRAL SYSTEM did not converge for mass flow rate
   **   ~~~   ** Check values should be zero. Most Recent values listed first.
   **   ~~~   ** Demand-to-Supply interface mass flow rate check value iteration history trace: 0.193779,0.193779,0.193779,0.193779,0.193779,0.193779,0.193779,0.193779,0.193779,0.193779,
   **   ~~~   ** Supply-to-demand interface deck 1 mass flow rate check value iteration history trace: 0.193779,0.193779,0.193779,0.193779,0.193779,0.193779,0.193779,0.193779,0.193779,0.193779,
   **   ~~~   ** Air System Named = CENTRAL SYSTEM did not converge for energy
   **   ~~~   ** Check values should be zero. Most Recent values listed first.
   **   ~~~   ** Demand-to-Supply interface energy check value iteration history trace: 4606.441182,4606.441182,4606.441182,4606.441183,4606.441183,4606.441183,4606.441183,4606.441184,4606.441184,4606.441184,
   **   ~~~   ** Supply-to-demand interface deck 1 energy check value iteration history trace: 2063.966812,2063.966812,2063.966812,2063.966812,2063.966812,2063.966812,2063.966812,2063.966812,2063.966813,2063.966813,
   ** Warning ** SimHVAC: Maximum iterations (20) exceeded for all HVAC loops, at ANNUAL, 11/18 08:15 - 08:30
   **   ~~~   ** The solution for one or more of the Air Loop HVAC systems did not appear to converge
   **   ~~~   ** Air System Named = CENTRAL SYSTEM did not converge for mass flow rate
   **   ~~~   ** Check values should be zero. Most Recent values listed first.
   **   ~~~   ** Demand-to-Supply interface mass flow rate check value iteration history trace: 7.431860E-002,7.431860E-002,7.431860E-002,7.431860E-002,7.431860E-002,7.431860E-002,7.431860E-002,7.431860E-002,7.431860E-002,7.431860E-002,
   **   ~~~   ** Supply-to-demand interface deck 1 mass flow rate check value iteration history trace: 7.431860E-002,7.431860E-002,7.431860E-002,7.431860E-002,7.431860E-002,7.431860E-002,7.431860E-002,7.431860E-002,7.431860E-002,7.431860E-002,
   **   ~~~   ** Air System Named = CENTRAL SYSTEM did not converge for energy
   **   ~~~   ** Check values should be zero. Most Recent values listed first.
   **   ~~~   ** Demand-to-Supply interface energy check value iteration history trace: 1471.908412,1471.908412,1471.908411,1471.908411,1471.908411,1471.908411,1471.908411,1471.908411,1471.908411,1471.908411,
   **   ~~~   ** Supply-to-demand interface deck 1 energy check value iteration history trace: 2524.341149,2524.341149,2524.341149,2524.341149,2524.341149,2524.341149,2524.341148,2524.341148,2524.341148,2524.341148,
   ** Warning ** SimHVAC: Maximum iterations (20) exceeded for all HVAC loops, at ANNUAL, 11/18 08:30 - 08:45
   **   ~~~   ** The solution for one or more of the Air Loop HVAC systems did not appear to converge
   **   ~~~   ** Air System Named = CENTRAL SYSTEM did not converge for mass flow rate
   **   ~~~   ** Check values should be zero. Most Recent values listed first.
   **   ~~~   ** Demand-to-Supply interface mass flow rate check value iteration history trace: 7.468556E-002,7.468556E-002,7.468556E-002,7.468556E-002,7.468556E-002,7.468556E-002,7.468556E-002,7.468556E-002,7.468556E-002,7.468556E-002,
   **   ~~~   ** Supply-to-demand interface deck 1 mass flow rate check value iteration history trace: 7.468556E-002,7.468556E-002,7.468556E-002,7.468556E-002,7.468556E-002,7.468556E-002,7.468556E-002,7.468556E-002,7.468556E-002,7.468556E-002,
   **   ~~~   ** Air System Named = CENTRAL SYSTEM did not converge for energy
   **   ~~~   ** Check values should be zero. Most Recent values listed first.
   **   ~~~   ** Demand-to-Supply interface energy check value iteration history trace: 1456.571798,1456.571798,1456.571798,1456.571798,1456.571798,1456.571798,1456.571798,1456.571798,1456.571798,1456.571798,
   **   ~~~   ** Supply-to-demand interface deck 1 energy check value iteration history trace: 2533.085110,2533.085110,2533.085110,2533.085110,2533.085109,2533.085109,2533.085109,2533.085109,2533.085109,2533.085109,
   ************* Simulation Error Summary *************
   ** Warning ** The following Report Variables were requested but not generated -- check.rdd file
   **   ~~~   ** Either the IDF did not contain these elements, the variable name is misspelled,
   **   ~~~   ** or the requested variable is an advanced output which requires Output : Diagnostics, DisplayAdvancedReportVariables;
   ************* Key=*, VarName=BASEBOARD TOTAL HEATING ENERGY, Frequency=
   ************* Key=*, VarName=WATER HEATER NATURALGAS ENERGY, Frequency=
   ************* Key=*, VarName=COOLING COIL TOTAL HEATING ENERGY, Frequency=
   ************* There are 34 unused schedules in input.
   ************* There are 388 unused week schedules in input.
   ************* There are 396 unused day schedules in input.
   ************* Use Output:Diagnostics,DisplayUnusedSchedules; to see them.
   *************
   ************* ===== Recurring Error Summary =====
   ************* The following recurring error messages occurred.
   *************
   *************  ** Warning ** "TOTAL HOT WATER LOAD" - Target water temperature should be less than or equal to the hot water temperature error continues...
   *************  **   ~~~   **   This error occurred 118853 total times;
   *************  **   ~~~   **   during Warmup 0 times;
   *************  **   ~~~   **   during Sizing 0 times.
   *************  **   ~~~   **   Max=9.050701  Min=5.897560E-005
   *************
   *************  ** Warning ** Temperature out of range [-100. to 200.] (PsyPsatFnTemp)
   *************  **   ~~~   **   This error occurred 1 total times;
   *************  **   ~~~   **   during Warmup 0 times;
   *************  **   ~~~   **   during Sizing 0 times.
   *************  **   ~~~   **   Max=-104.856689 C  Min=-104.856689 C
   *************
   *************
   ************* ===== Final Error Summary =====
   ************* The following error categories occurred.  Consider correcting or noting.
   ************* Nominally Unused Constructions
   ************* ..The nominally unused constructions warning is provided to alert you to potential conditions that can cause
   ************* ..extra time during simulation. Each construction is calculated by the algorithm indicated in the HeatBalanceAlgorithm
   ************* ..object. You may remove the constructions indicated (when you use the DisplayExtraWarnings option).
   *************
   ************* EnergyPlus Warmup Error Summary. During Warmup: 1 Warning; 0 Severe Errors.
   ************* EnergyPlus Sizing Error Summary. During Sizing: 4 Warning; 0 Severe Errors.
   ************* EnergyPlus Completed Successfully-- 118882 Warning; 0 Severe Errors; Elapsed Time=00hr 06min 12.92sec
