Program Version,EnergyPlus, Version 22.2.0-c249759bad, YMD=2023.09.01 18:49,
   ************* Beginning Zone Sizing Calculations
   ** Warning ** ProcessScheduleInput: Schedule:Constant="ALWAYS ON DISCRETE", Schedule Type Limits Name="ONOFF" not found -- will not be validated
   ** Warning ** Foundation:Kiva="KIVA FOUNDATION", no Interior Horizontal Insulation Material Name defined
   **   ~~~   ** Interior Horizontal Insulation Depth will not be used.
   ** Warning ** CheckUsedConstructions: There are 15 nominally unused constructions in input.
   **   ~~~   ** Each Unused construction is shown.
   ************* Construction=INTERIOR FLOOR
   ************* Construction=INTERIOR WINDOW
   ************* Construction=EXTERIOR DOOR
   ************* Construction=INTERIOR DOOR
   ************* Construction=GABLE CONSTRUCTION
   ************* Construction=CRAWL_FLOOR
   ************* Construction=INSULATED PIPE
   ************* Construction=PLAIN PIPE
   ************* Construction=TDD PIPE
   ************* Construction=TDD DOME
   ************* Construction=TDD DIFFUSER
   ************* Construction=CRAWL WALL
   ************* Construction=CEILING-FLOOR-LAYER
   ************* Construction=SLAB CONSTRUCTION W FULL R10 INSULATION
   ************* Construction=SLAB CONSTRUCTION W FULL R5 INSULATION
   ** Warning ** GetDXCoils: Coil:Heating:DX:SingleSpeed="DX_HEATING_COIL" curve values
   **   ~~~   ** ... Defrost Energy Input Ratio Function of Temperature Curve Name = DEFROSTEIR output is not equal to 1.0 (+ or - 10%) at rated conditions.
   **   ~~~   ** ... Curve output at rated conditions = 0.152
   ************* Beginning System Sizing Calculations
   ************* Beginning Plant Sizing Calculations
   ** Warning ** SizeDXCoil Coil:Cooling:DX:SingleSpeed DX_COOLING_COIL
   **   ~~~   ** ...Gross Rated Total Cooling Capacity [W] will be limited by the maximum rated volume flow per rated total capacity ratio.
   **   ~~~   ** ...DX coil volume flow rate ( m3/s ) = 0.412986
   **   ~~~   ** ...Requested capacity ( W ) = 4906.521
   **   ~~~   ** ...Requested flow/capacity ratio ( m3/s/W ) = 8.417E-005
   **   ~~~   ** ...Maximum flow/capacity ratio ( m3/s/W ) = 6.041E-005
   **   ~~~   ** ...Adjusted capacity ( W ) = 6836.395
   ** Warning ** Coil:WaterHeating:AirToWaterHeatPump:Wrapped "HEAT PUMP WATER HEATER EVAPORATOR": Rated air volume flow rate per watt of rated total water heating capacity is out of range
   **   ~~~   ** Min Rated Vol Flow Per Watt=[4.027E-005], Rated Vol Flow Per Watt=[1.510E-004], Max Rated Vol Flow Per Watt=[8.056E-005]. See Input-Output Reference Manual for valid range.
   ************* SizeFan: : Potential issue with equipment sizing for Fan:OnOff HEAT PUMP WATER HEATER FAN
   **   ~~~   ** User-Specified Maximum Flow Rate [m3/s] = 0.22653
   **   ~~~   ** differs from Design Size Maximum Flow Rate [m3/s] = 7.55250E-002
   **   ~~~   ** This may, or may not, indicate mismatched component sizes.
   **   ~~~   ** Verify that the value entered is intended and is consistent with other components.
   ** Warning ** Water heater = WATER HEATER TANK:  Recovery Efficiency and Energy Factor could not be calculated during the test for standard ratings
   **   ~~~   ** Setpoint was never recovered and/or heater never turned on
   ** Warning ** Check input. Pump nominal power or motor efficiency is set to 0, for pump=MAINS PRESSURE
   ** Warning ** Output:Meter: invalid Key Name="ELECTRIC_RANGE:INTERIOREQUIPMENT:ELECTRICITY" - not found.
   ** Warning ** Output:Meter: invalid Key Name="ELECTRIC_DRYER:INTERIOREQUIPMENT:ELECTRICITY" - not found.
   ** Warning ** Output:Meter: invalid Key Name="HEATRECOVERY:ELECTRICITY" - not found.
   ** Warning ** Output:Meter: invalid Key Name="HEATING:NATURALGAS" - not found.
   ** Warning ** Output:Meter: invalid Key Name="WATERSYSTEMS:NATURALGAS" - not found.
   ** Warning ** Output:Meter: invalid Key Name="PROPANE:FACILITY" - not found.
   ** Warning ** Output:Meter: invalid Key Name="HEATING:PROPANE" - not found.
   ************* Testing Individual Branch Integrity
   ************* All Branches passed integrity testing
   ************* Testing Individual Supply Air Path Integrity
   ************* All Supply Air Paths passed integrity testing
   ************* Testing Individual Return Air Path Integrity
   ************* All Return Air Paths passed integrity testing
   ************* No node connection errors were found.
   ************* Beginning Simulation
   ** Warning ** AirflowNetwork::Solver::validate_distribution: Heat pump water heater is simulated along with an AirflowNetwork but is not included in the AirflowNetwork.
   ** Warning ** CalcEquipmentFlowRates: "TOTAL HOT WATER LOAD" - Target water temperature is greater than the hot water temperature by (0.55 C)
   **   ~~~   **  Environment=EXTREME_WINTER, at Simulation time=01/06 03:45 - 04:00
   **   ~~~   ** ...target water temperature     = 53.33 C
   **   ~~~   ** ...hot water temperature        = 52.78 C
   **   ~~~   ** ...Target water temperature should be less than or equal to the hot water temperature. Verify temperature setpoints and schedules.
   ** Warning ** SimHVAC: Maximum iterations (20) exceeded for all HVAC loops, at ANNUAL, 01/03 12:15 - 12:30
   **   ~~~   ** The solution for one or more of the Air Loop HVAC systems did not appear to converge
   **   ~~~   ** Air System Named = CENTRAL SYSTEM did not converge for mass flow rate
   **   ~~~   ** Check values should be zero. Most Recent values listed first.
   **   ~~~   ** Demand-to-Supply interface mass flow rate check value iteration history trace: 5.299525E-002,5.299525E-002,5.299525E-002,5.299525E-002,5.299525E-002,5.299525E-002,5.299525E-002,5.299525E-002,5.299525E-002,5.299525E-002,
   **   ~~~   ** Supply-to-demand interface deck 1 mass flow rate check value iteration history trace: 5.299525E-002,5.299525E-002,5.299525E-002,5.299525E-002,5.299525E-002,5.299525E-002,5.299525E-002,5.299525E-002,5.299525E-002,5.299525E-002,
   **   ~~~   ** Air System Named = CENTRAL SYSTEM did not converge for energy
   **   ~~~   ** Check values should be zero. Most Recent values listed first.
   **   ~~~   ** Demand-to-Supply interface energy check value iteration history trace: 1048.038522,1048.038522,1048.038522,1048.038522,1048.038522,1048.038522,1048.038522,1048.038522,1048.038522,1048.038522,
   **   ~~~   ** Supply-to-demand interface deck 1 energy check value iteration history trace: 1799.773738,1799.773738,1799.773737,1799.773737,1799.773737,1799.773737,1799.773737,1799.773737,1799.773737,1799.773737,
   ** Warning ** SimHVAC: Maximum iterations (20) exceeded for all HVAC loops, at ANNUAL, 01/18 15:00 - 15:15
   **   ~~~   ** The solution for one or more of the Air Loop HVAC systems did not appear to converge
   **   ~~~   ** Air System Named = CENTRAL SYSTEM did not converge for mass flow rate
   **   ~~~   ** Check values should be zero. Most Recent values listed first.
   **   ~~~   ** Demand-to-Supply interface mass flow rate check value iteration history trace: 2.710322E-002,2.710322E-002,2.710322E-002,2.710322E-002,2.710322E-002,2.710322E-002,2.710322E-002,2.710322E-002,2.710322E-002,2.710322E-002,
   **   ~~~   ** Supply-to-demand interface deck 1 mass flow rate check value iteration history trace: 2.710322E-002,2.710322E-002,2.710322E-002,2.710322E-002,2.710322E-002,2.710322E-002,2.710322E-002,2.710322E-002,2.710322E-002,2.710322E-002,
   **   ~~~   ** Air System Named = CENTRAL SYSTEM did not converge for energy
   **   ~~~   ** Check values should be zero. Most Recent values listed first.
   **   ~~~   ** Demand-to-Supply interface energy check value iteration history trace: 528.138924,528.138924,528.138924,528.138924,528.138924,528.138924,528.138924,528.138924,528.138924,528.138924,
   **   ~~~   ** Supply-to-demand interface deck 1 energy check value iteration history trace: 990.159431,990.159431,990.159431,990.159431,990.159431,990.159431,990.159431,990.159431,990.159431,990.159431,
   ** Warning ** SimHVAC: Maximum iterations (20) exceeded for all HVAC loops, at ANNUAL, 01/28 10:15 - 10:30
   **   ~~~   ** The solution for one or more of the Air Loop HVAC systems did not appear to converge
   **   ~~~   ** Air System Named = CENTRAL SYSTEM did not converge for mass flow rate
   **   ~~~   ** Check values should be zero. Most Recent values listed first.
   **   ~~~   ** Demand-to-Supply interface mass flow rate check value iteration history trace: 4.892793E-002,4.892793E-002,4.892793E-002,4.892793E-002,4.892793E-002,4.892793E-002,4.892793E-002,4.892793E-002,4.892793E-002,4.892793E-002,
   **   ~~~   ** Supply-to-demand interface deck 1 mass flow rate check value iteration history trace: 4.892793E-002,4.892793E-002,4.892793E-002,4.892793E-002,4.892793E-002,4.892793E-002,4.892793E-002,4.892793E-002,4.892793E-002,4.892793E-002,
   **   ~~~   ** Air System Named = CENTRAL SYSTEM did not converge for energy
   **   ~~~   ** Check values should be zero. Most Recent values listed first.
   **   ~~~   ** Demand-to-Supply interface energy check value iteration history trace: 969.607196,969.607196,969.607196,969.607196,969.607196,969.607196,969.607196,969.607196,969.607196,969.607196,
   **   ~~~   ** Supply-to-demand interface deck 1 energy check value iteration history trace: 1819.689605,1819.689605,1819.689605,1819.689605,1819.689605,1819.689605,1819.689605,1819.689605,1819.689605,1819.689605,
   ** Warning ** SimHVAC: Maximum iterations (20) exceeded for all HVAC loops, at ANNUAL, 01/30 19:45 - 20:00
   **   ~~~   ** The solution for one or more of the Air Loop HVAC systems did not appear to converge
   **   ~~~   ** Air System Named = CENTRAL SYSTEM did not converge for mass flow rate
   **   ~~~   ** Check values should be zero. Most Recent values listed first.
   **   ~~~   ** Demand-to-Supply interface mass flow rate check value iteration history trace: 5.950253E-002,5.950253E-002,5.950253E-002,5.950253E-002,5.950253E-002,5.950253E-002,5.950253E-002,5.950253E-002,5.950253E-002,5.950253E-002,
   **   ~~~   ** Supply-to-demand interface deck 1 mass flow rate check value iteration history trace: 5.950253E-002,5.950253E-002,5.950253E-002,5.950253E-002,5.950253E-002,5.950253E-002,5.950253E-002,5.950253E-002,5.950253E-002,5.950253E-002,
   **   ~~~   ** Air System Named = CENTRAL SYSTEM did not converge for energy
   **   ~~~   ** Check values should be zero. Most Recent values listed first.
   **   ~~~   ** Demand-to-Supply interface energy check value iteration history trace: 1159.998964,1159.998963,1159.998963,1159.998963,1159.998963,1159.998963,1159.998963,1159.998963,1159.998963,1159.998963,
   **   ~~~   ** Supply-to-demand interface deck 1 energy check value iteration history trace: 1986.674481,1986.674481,1986.674481,1986.674481,1986.674481,1986.674481,1986.674481,1986.674481,1986.674480,1986.674480,
   ** Warning ** Temperature out of range [-100. to 200.] (PsyPsatFnTemp)
   **   ~~~   **  Routine=PsyTwbFnTdbWPb, Environment=ANNUAL, at Simulation time=02/16 15:30 - 15:45
   **   ~~~   **  Input Temperature=-1424.54
   ** Warning ** SimHVAC: Maximum iterations (20) exceeded for all HVAC loops, at ANNUAL, 02/18 11:05 - 11:07
   **   ~~~   ** The solution for one or more of the Air Loop HVAC systems did not appear to converge
   **   ~~~   ** Air System Named = CENTRAL SYSTEM did not converge for mass flow rate
   **   ~~~   ** Check values should be zero. Most Recent values listed first.
   **   ~~~   ** Demand-to-Supply interface mass flow rate check value iteration history trace: 4.632616E-002,4.632616E-002,4.632616E-002,4.632616E-002,4.632616E-002,4.632616E-002,4.632616E-002,4.632616E-002,4.632616E-002,4.632616E-002,
   **   ~~~   ** Supply-to-demand interface deck 1 mass flow rate check value iteration history trace: 4.632616E-002,4.632616E-002,4.632616E-002,4.632616E-002,4.632616E-002,4.632616E-002,4.632616E-002,4.632616E-002,4.632616E-002,4.632616E-002,
   **   ~~~   ** Air System Named = CENTRAL SYSTEM did not converge for energy
   **   ~~~   ** Check values should be zero. Most Recent values listed first.
   **   ~~~   ** Demand-to-Supply interface energy check value iteration history trace: 914.534966,914.534966,914.534966,914.534966,914.534966,914.534966,914.534966,914.534966,914.534966,914.534966,
   **   ~~~   ** Supply-to-demand interface deck 1 energy check value iteration history trace: 1769.862925,1769.862925,1769.862925,1769.862925,1769.862925,1769.862925,1769.862925,1769.862925,1769.862925,1769.862925,
   ** Warning ** SimHVAC: Maximum iterations (20) exceeded for all HVAC loops, at ANNUAL, 02/27 09:47 - 09:48
   **   ~~~   ** The solution for one or more of the Air Loop HVAC systems did not appear to converge
   **   ~~~   ** Air System Named = CENTRAL SYSTEM did not converge for mass flow rate
   **   ~~~   ** Check values should be zero. Most Recent values listed first.
   **   ~~~   ** Demand-to-Supply interface mass flow rate check value iteration history trace: 4.043495E-002,4.043495E-002,4.043495E-002,4.043495E-002,4.043495E-002,4.043495E-002,4.043495E-002,4.043495E-002,4.043495E-002,4.043495E-002,
   **   ~~~   ** Supply-to-demand interface deck 1 mass flow rate check value iteration history trace: 4.043495E-002,4.043495E-002,4.043495E-002,4.043495E-002,4.043495E-002,4.043495E-002,4.043495E-002,4.043495E-002,4.043495E-002,4.043495E-002,
   **   ~~~   ** Air System Named = CENTRAL SYSTEM did not converge for energy
   **   ~~~   ** Check values should be zero. Most Recent values listed first.
   **   ~~~   ** Demand-to-Supply interface energy check value iteration history trace: 801.331395,801.331395,801.331395,801.331395,801.331395,801.331395,801.331395,801.331395,801.331395,801.331395,
   **   ~~~   ** Supply-to-demand interface deck 1 energy check value iteration history trace: 1489.700003,1489.700003,1489.700003,1489.700003,1489.700003,1489.700003,1489.700003,1489.700003,1489.700003,1489.700003,
   ** Warning ** SimHVAC: Maximum iterations (20) exceeded for all HVAC loops, at ANNUAL, 02/27 10:30 - 10:32
   **   ~~~   ** The solution for one or more of the Air Loop HVAC systems did not appear to converge
   **   ~~~   ** Air System Named = CENTRAL SYSTEM did not converge for mass flow rate
   **   ~~~   ** Check values should be zero. Most Recent values listed first.
   **   ~~~   ** Demand-to-Supply interface mass flow rate check value iteration history trace: 3.580360E-002,3.580360E-002,3.580360E-002,3.580360E-002,3.580360E-002,3.580360E-002,3.580360E-002,3.580360E-002,3.580360E-002,3.580360E-002,
   **   ~~~   ** Supply-to-demand interface deck 1 mass flow rate check value iteration history trace: 3.580360E-002,3.580360E-002,3.580360E-002,3.580360E-002,3.580360E-002,3.580360E-002,3.580360E-002,3.580360E-002,3.580360E-002,3.580360E-002,
   **   ~~~   ** Air System Named = CENTRAL SYSTEM did not converge for energy
   **   ~~~   ** Check values should be zero. Most Recent values listed first.
   **   ~~~   ** Demand-to-Supply interface energy check value iteration history trace: 708.616843,708.616843,708.616843,708.616843,708.616843,708.616843,708.616843,708.616843,708.616843,708.616843,
   **   ~~~   ** Supply-to-demand interface deck 1 energy check value iteration history trace: 1343.419927,1343.419927,1343.419927,1343.419927,1343.419927,1343.419927,1343.419927,1343.419927,1343.419927,1343.419926,
   ** Warning ** SimHVAC: Maximum iterations (20) exceeded for all HVAC loops, at ANNUAL, 03/01 10:02 - 10:04
   **   ~~~   ** The solution for one or more of the Air Loop HVAC systems did not appear to converge
   **   ~~~   ** Air System Named = CENTRAL SYSTEM did not converge for mass flow rate
   **   ~~~   ** Check values should be zero. Most Recent values listed first.
   **   ~~~   ** Demand-to-Supply interface mass flow rate check value iteration history trace: 5.285253E-002,5.285253E-002,5.285253E-002,5.285253E-002,5.285253E-002,5.285253E-002,5.285253E-002,5.285253E-002,5.285253E-002,5.285253E-002,
   **   ~~~   ** Supply-to-demand interface deck 1 mass flow rate check value iteration history trace: 5.285253E-002,5.285253E-002,5.285253E-002,5.285253E-002,5.285253E-002,5.285253E-002,5.285253E-002,5.285253E-002,5.285253E-002,5.285253E-002,
   **   ~~~   ** Air System Named = CENTRAL SYSTEM did not converge for energy
   **   ~~~   ** Check values should be zero. Most Recent values listed first.
   **   ~~~   ** Demand-to-Supply interface energy check value iteration history trace: 1047.413718,1047.413718,1047.413718,1047.413718,1047.413718,1047.413718,1047.413717,1047.413717,1047.413717,1047.413717,
   **   ~~~   ** Supply-to-demand interface deck 1 energy check value iteration history trace: 1825.402031,1825.402031,1825.402031,1825.402031,1825.402031,1825.402031,1825.402031,1825.402030,1825.402030,1825.402030,
   ** Warning ** SimHVAC: Maximum iterations (20) exceeded for all HVAC loops, at ANNUAL, 03/27 09:30 - 09:33
   **   ~~~   ** The solution for one or more of the Air Loop HVAC systems did not appear to converge
   **   ~~~   ** Air System Named = CENTRAL SYSTEM did not converge for mass flow rate
   **   ~~~   ** Check values should be zero. Most Recent values listed first.
   **   ~~~   ** Demand-to-Supply interface mass flow rate check value iteration history trace: 4.559252E-002,4.559252E-002,4.559252E-002,4.559252E-002,4.559252E-002,4.559252E-002,4.559252E-002,4.559252E-002,4.559252E-002,4.559252E-002,
   **   ~~~   ** Supply-to-demand interface deck 1 mass flow rate check value iteration history trace: 4.559252E-002,4.559252E-002,4.559252E-002,4.559252E-002,4.559252E-002,4.559252E-002,4.559252E-002,4.559252E-002,4.559252E-002,4.559252E-002,
   **   ~~~   ** Air System Named = CENTRAL SYSTEM did not converge for energy
   **   ~~~   ** Check values should be zero. Most Recent values listed first.
   **   ~~~   ** Demand-to-Supply interface energy check value iteration history trace: 903.486766,903.486766,903.486766,903.486766,903.486766,903.486766,903.486766,903.486766,903.486766,903.486766,
   **   ~~~   ** Supply-to-demand interface deck 1 energy check value iteration history trace: 1673.505396,1673.505396,1673.505396,1673.505396,1673.505396,1673.505396,1673.505396,1673.505395,1673.505395,1673.505395,
   ** Warning ** SimHVAC: Maximum iterations (20) exceeded for all HVAC loops, at ANNUAL, 03/30 09:17 - 09:18
   **   ~~~   ** The solution for one or more of the Air Loop HVAC systems did not appear to converge
   **   ~~~   ** Air System Named = CENTRAL SYSTEM did not converge for mass flow rate
   **   ~~~   ** Check values should be zero. Most Recent values listed first.
   **   ~~~   ** Demand-to-Supply interface mass flow rate check value iteration history trace: 4.239283E-002,4.239283E-002,4.239283E-002,4.239283E-002,4.239283E-002,4.239283E-002,4.239283E-002,4.239283E-002,4.239283E-002,4.239283E-002,
   **   ~~~   ** Supply-to-demand interface deck 1 mass flow rate check value iteration history trace: 4.239283E-002,4.239283E-002,4.239283E-002,4.239283E-002,4.239283E-002,4.239283E-002,4.239283E-002,4.239283E-002,4.239283E-002,4.239283E-002,
   **   ~~~   ** Air System Named = CENTRAL SYSTEM did not converge for energy
   **   ~~~   ** Check values should be zero. Most Recent values listed first.
   **   ~~~   ** Demand-to-Supply interface energy check value iteration history trace: 837.847128,837.847128,837.847128,837.847128,837.847128,837.847128,837.847127,837.847127,837.847127,837.847127,
   **   ~~~   ** Supply-to-demand interface deck 1 energy check value iteration history trace: 1644.711327,1644.711327,1644.711327,1644.711327,1644.711327,1644.711327,1644.711327,1644.711327,1644.711327,1644.711326,
   ** Warning ** SimHVAC: Maximum iterations (20) exceeded for all HVAC loops, at ANNUAL, 04/01 03:00 - 03:15
   **   ~~~   ** The solution for one or more of the Air Loop HVAC systems did not appear to converge
   **   ~~~   ** Air System Named = CENTRAL SYSTEM did not converge for mass flow rate
   **   ~~~   ** Check values should be zero. Most Recent values listed first.
   **   ~~~   ** Demand-to-Supply interface mass flow rate check value iteration history trace: 6.072104E-002,6.072104E-002,6.072104E-002,6.072104E-002,6.072104E-002,6.072104E-002,6.072104E-002,6.072104E-002,6.072104E-002,6.072104E-002,
   **   ~~~   ** Supply-to-demand interface deck 1 mass flow rate check value iteration history trace: 6.072104E-002,6.072104E-002,6.072104E-002,6.072104E-002,6.072104E-002,6.072104E-002,6.072104E-002,6.072104E-002,6.072104E-002,6.072104E-002,
   **   ~~~   ** Air System Named = CENTRAL SYSTEM did not converge for energy
   **   ~~~   ** Check values should be zero. Most Recent values listed first.
   **   ~~~   ** Demand-to-Supply interface energy check value iteration history trace: 1149.048159,1149.048159,1149.048158,1149.048158,1149.048158,1149.048158,1149.048158,1149.048158,1149.048158,1149.048158,
   **   ~~~   ** Supply-to-demand interface deck 1 energy check value iteration history trace: 1918.322693,1918.322692,1918.322692,1918.322692,1918.322692,1918.322692,1918.322692,1918.322692,1918.322692,1918.322692,
   ** Warning ** SimHVAC: Maximum iterations (20) exceeded for all HVAC loops, at ANNUAL, 04/03 10:23 - 10:25
   **   ~~~   ** The solution for one or more of the Air Loop HVAC systems did not appear to converge
   **   ~~~   ** Air System Named = CENTRAL SYSTEM did not converge for mass flow rate
   **   ~~~   ** Check values should be zero. Most Recent values listed first.
   **   ~~~   ** Demand-to-Supply interface mass flow rate check value iteration history trace: 4.340063E-002,4.340063E-002,4.340063E-002,4.340063E-002,4.340063E-002,4.340063E-002,4.340063E-002,4.340063E-002,4.340063E-002,4.340063E-002,
   **   ~~~   ** Supply-to-demand interface deck 1 mass flow rate check value iteration history trace: 4.340063E-002,4.340063E-002,4.340063E-002,4.340063E-002,4.340063E-002,4.340063E-002,4.340063E-002,4.340063E-002,4.340063E-002,4.340063E-002,
   **   ~~~   ** Air System Named = CENTRAL SYSTEM did not converge for energy
   **   ~~~   ** Check values should be zero. Most Recent values listed first.
   **   ~~~   ** Demand-to-Supply interface energy check value iteration history trace: 859.382766,859.382766,859.382766,859.382766,859.382766,859.382766,859.382766,859.382766,859.382766,859.382766,
   **   ~~~   ** Supply-to-demand interface deck 1 energy check value iteration history trace: 1468.051926,1468.051926,1468.051926,1468.051926,1468.051926,1468.051926,1468.051926,1468.051925,1468.051925,1468.051925,
   ** Warning ** SimHVAC: Maximum iterations (20) exceeded for all HVAC loops, at ANNUAL, 04/26 07:45 - 08:00
   **   ~~~   ** The solution for one or more of the Air Loop HVAC systems did not appear to converge
   **   ~~~   ** Air System Named = CENTRAL SYSTEM did not converge for mass flow rate
   **   ~~~   ** Check values should be zero. Most Recent values listed first.
   **   ~~~   ** Demand-to-Supply interface mass flow rate check value iteration history trace: 4.455875E-002,4.455875E-002,4.455875E-002,4.455875E-002,4.455875E-002,4.455875E-002,4.455875E-002,4.455875E-002,4.455875E-002,4.455875E-002,
   **   ~~~   ** Supply-to-demand interface deck 1 mass flow rate check value iteration history trace: 4.455875E-002,4.455875E-002,4.455875E-002,4.455875E-002,4.455875E-002,4.455875E-002,4.455875E-002,4.455875E-002,4.455875E-002,4.455875E-002,
   **   ~~~   ** Air System Named = CENTRAL SYSTEM did not converge for energy
   **   ~~~   ** Check values should be zero. Most Recent values listed first.
   **   ~~~   ** Demand-to-Supply interface energy check value iteration history trace: 883.178118,883.178118,883.178118,883.178118,883.178118,883.178118,883.178118,883.178118,883.178118,883.178118,
   **   ~~~   ** Supply-to-demand interface deck 1 energy check value iteration history trace: 1759.849952,1759.849952,1759.849952,1759.849952,1759.849952,1759.849952,1759.849952,1759.849952,1759.849952,1759.849952,
   ** Warning ** SimHVAC: Maximum iterations (20) exceeded for all HVAC loops, at ANNUAL, 04/26 07:51 - 07:54
   **   ~~~   ** The solution for one or more of the Air Loop HVAC systems did not appear to converge
   **   ~~~   ** Air System Named = CENTRAL SYSTEM did not converge for mass flow rate
   **   ~~~   ** Check values should be zero. Most Recent values listed first.
   **   ~~~   ** Demand-to-Supply interface mass flow rate check value iteration history trace: 4.507488E-002,4.507488E-002,4.507488E-002,4.507488E-002,4.507488E-002,4.507488E-002,4.507488E-002,4.507488E-002,4.507488E-002,4.507488E-002,
   **   ~~~   ** Supply-to-demand interface deck 1 mass flow rate check value iteration history trace: 4.507488E-002,4.507488E-002,4.507488E-002,4.507488E-002,4.507488E-002,4.507488E-002,4.507488E-002,4.507488E-002,4.507488E-002,4.507488E-002,
   **   ~~~   ** Air System Named = CENTRAL SYSTEM did not converge for energy
   **   ~~~   ** Check values should be zero. Most Recent values listed first.
   **   ~~~   ** Demand-to-Supply interface energy check value iteration history trace: 893.431916,893.431916,893.431916,893.431916,893.431916,893.431916,893.431916,893.431916,893.431916,893.431916,
   **   ~~~   ** Supply-to-demand interface deck 1 energy check value iteration history trace: 1780.218925,1780.218925,1780.218925,1780.218925,1780.218925,1780.218925,1780.218925,1780.218925,1780.218925,1780.218925,
   ** Warning ** Cooling coil control failed to converge for AirLoopHVAC:UnitaryHeatPump:AirToAir:SS HEAT PUMP
   **   ~~~   **   Iteration limit exceeded in calculating DX cooling coil sensible part-load ratio.
   **   ~~~   ** Sensible load to be met by DX coil = -1090.81 (watts), sensible output of DX coil = -1106.71 (watts), and the simulation continues.
   **   ~~~   **  Environment=ANNUAL, at Simulation time=05/13 18:45 - 18:50
   ************* Simulation Error Summary *************
   ** Warning ** The following Report Variables were requested but not generated -- check.rdd file
   **   ~~~   ** Either the IDF did not contain these elements, the variable name is misspelled,
   **   ~~~   ** or the requested variable is an advanced output which requires Output : Diagnostics, DisplayAdvancedReportVariables;
   ************* Key=*, VarName=BASEBOARD TOTAL HEATING ENERGY, Frequency=
   ************* Key=*, VarName=WATER HEATER NATURALGAS ENERGY, Frequency=
   ************* Key=*, VarName=COOLING COIL TOTAL HEATING ENERGY, Frequency=
   ************* There are 34 unused schedules in input.
   ************* There are 388 unused week schedules in input.
   ************* There are 396 unused day schedules in input.
   ************* Use Output:Diagnostics,DisplayUnusedSchedules; to see them.
   *************
   ************* ===== Recurring Error Summary =====
   ************* The following recurring error messages occurred.
   *************
   *************  ** Warning ** "TOTAL HOT WATER LOAD" - Target water temperature should be less than or equal to the hot water temperature error continues...
   *************  **   ~~~   **   This error occurred 75395 total times;
   *************  **   ~~~   **   during Warmup 0 times;
   *************  **   ~~~   **   during Sizing 0 times.
   *************  **   ~~~   **   Max=6.359642  Min=8.133076E-004
   *************
   *************  ** Warning ** Temperature out of range [-100. to 200.] (PsyPsatFnTemp)
   *************  **   ~~~   **   This error occurred 85 total times;
   *************  **   ~~~   **   during Warmup 0 times;
   *************  **   ~~~   **   during Sizing 0 times.
   *************  **   ~~~   **   Max=-120.622761 C  Min=-4074.059814 C
   *************
   *************  ** Warning ** AirLoopHVAC:UnitaryHeatPump:AirToAir "SS HEAT PUMP" - Iteration limit exceeded in calculating sensible cooling part-load ratio error continues. Sensible load statistics:
   *************  **   ~~~   **   This error occurred 5 total times;
   *************  **   ~~~   **   during Warmup 0 times;
   *************  **   ~~~   **   during Sizing 0 times.
   *************  **   ~~~   **   Max=-545.343567  Min=-1090.812927
   *************
   *************  ** Warning ** SimHVAC: Exceeding Maximum iterations for all HVAC loops, during ANNUAL continues
   *************  **   ~~~   **   This error occurred 12 total times;
   *************  **   ~~~   **   during Warmup 0 times;
   *************  **   ~~~   **   during Sizing 0 times.
   *************
   *************
   ************* ===== Final Error Summary =====
   ************* The following error categories occurred.  Consider correcting or noting.
   ************* Nominally Unused Constructions
   ************* ..The nominally unused constructions warning is provided to alert you to potential conditions that can cause
   ************* ..extra time during simulation. Each construction is calculated by the algorithm indicated in the HeatBalanceAlgorithm
   ************* ..object. You may remove the constructions indicated (when you use the DisplayExtraWarnings option).
   *************
   ************* EnergyPlus Warmup Error Summary. During Warmup: 1 Warning; 0 Severe Errors.
   ************* EnergyPlus Sizing Error Summary. During Sizing: 4 Warning; 0 Severe Errors.
   ************* EnergyPlus Completed Successfully-- 75529 Warning; 0 Severe Errors; Elapsed Time=00hr 01min 45.62sec
