Program Version,EnergyPlus, Version 22.2.0-c249759bad, YMD=2023.09.01 17:30,
   ************* Beginning Zone Sizing Calculations
   ** Warning ** ProcessScheduleInput: Schedule:Constant="ALWAYS ON DISCRETE", Schedule Type Limits Name="ONOFF" not found -- will not be validated
   ** Warning ** Foundation:Kiva="KIVA FOUNDATION", no Interior Horizontal Insulation Material Name defined
   **   ~~~   ** Interior Horizontal Insulation Depth will not be used.
   ** Warning ** CheckUsedConstructions: There are 15 nominally unused constructions in input.
   **   ~~~   ** Each Unused construction is shown.
   ************* Construction=INTERIOR FLOOR
   ************* Construction=INTERIOR WINDOW
   ************* Construction=EXTERIOR DOOR
   ************* Construction=INTERIOR DOOR
   ************* Construction=GABLE CONSTRUCTION
   ************* Construction=CRAWL_FLOOR
   ************* Construction=INSULATED PIPE
   ************* Construction=PLAIN PIPE
   ************* Construction=TDD PIPE
   ************* Construction=TDD DOME
   ************* Construction=TDD DIFFUSER
   ************* Construction=CRAWL WALL
   ************* Construction=CEILING-FLOOR-LAYER
   ************* Construction=SLAB CONSTRUCTION W FULL R10 INSULATION
   ************* Construction=SLAB CONSTRUCTION W FULL R5 INSULATION
   ** Warning ** GetDXCoils: Coil:Heating:DX:SingleSpeed="DX_HEATING_COIL" curve values
   **   ~~~   ** ... Defrost Energy Input Ratio Function of Temperature Curve Name = DEFROSTEIR output is not equal to 1.0 (+ or - 10%) at rated conditions.
   **   ~~~   ** ... Curve output at rated conditions = 0.152
   ************* Beginning System Sizing Calculations
   ************* Beginning Plant Sizing Calculations
   ** Warning ** SizeDXCoil Coil:Cooling:DX:SingleSpeed DX_COOLING_COIL
   **   ~~~   ** ...Gross Rated Total Cooling Capacity [W] will be limited by the maximum rated volume flow per rated total capacity ratio.
   **   ~~~   ** ...DX coil volume flow rate ( m3/s ) = 0.547829
   **   ~~~   ** ...Requested capacity ( W ) = 7312.057
   **   ~~~   ** ...Requested flow/capacity ratio ( m3/s/W ) = 7.492E-005
   **   ~~~   ** ...Maximum flow/capacity ratio ( m3/s/W ) = 6.041E-005
   **   ~~~   ** ...Adjusted capacity ( W ) = 9068.530
   ** Warning ** Coil:WaterHeating:AirToWaterHeatPump:Wrapped "HEAT PUMP WATER HEATER EVAPORATOR": Rated air volume flow rate per watt of rated total water heating capacity is out of range
   **   ~~~   ** Min Rated Vol Flow Per Watt=[4.027E-005], Rated Vol Flow Per Watt=[1.510E-004], Max Rated Vol Flow Per Watt=[8.056E-005]. See Input-Output Reference Manual for valid range.
   ************* SizeFan: : Potential issue with equipment sizing for Fan:OnOff HEAT PUMP WATER HEATER FAN
   **   ~~~   ** User-Specified Maximum Flow Rate [m3/s] = 0.22653
   **   ~~~   ** differs from Design Size Maximum Flow Rate [m3/s] = 7.55250E-002
   **   ~~~   ** This may, or may not, indicate mismatched component sizes.
   **   ~~~   ** Verify that the value entered is intended and is consistent with other components.
   ** Warning ** Water heater = WATER HEATER TANK:  Recovery Efficiency and Energy Factor could not be calculated during the test for standard ratings
   **   ~~~   ** Setpoint was never recovered and/or heater never turned on
   ** Warning ** Check input. Pump nominal power or motor efficiency is set to 0, for pump=MAINS PRESSURE
   ** Warning ** Output:Meter: invalid Key Name="ELECTRIC_RANGE:INTERIOREQUIPMENT:ELECTRICITY" - not found.
   ** Warning ** Output:Meter: invalid Key Name="ELECTRIC_DRYER:INTERIOREQUIPMENT:ELECTRICITY" - not found.
   ** Warning ** Output:Meter: invalid Key Name="HEATRECOVERY:ELECTRICITY" - not found.
   ** Warning ** Output:Meter: invalid Key Name="HEATING:NATURALGAS" - not found.
   ** Warning ** Output:Meter: invalid Key Name="WATERSYSTEMS:NATURALGAS" - not found.
   ** Warning ** Output:Meter: invalid Key Name="PROPANE:FACILITY" - not found.
   ** Warning ** Output:Meter: invalid Key Name="HEATING:PROPANE" - not found.
   ************* Testing Individual Branch Integrity
   ************* All Branches passed integrity testing
   ************* Testing Individual Supply Air Path Integrity
   ************* All Supply Air Paths passed integrity testing
   ************* Testing Individual Return Air Path Integrity
   ************* All Return Air Paths passed integrity testing
   ************* No node connection errors were found.
   ************* Beginning Simulation
   ** Warning ** AirflowNetwork::Solver::validate_distribution: Heat pump water heater is simulated along with an AirflowNetwork but is not included in the AirflowNetwork.
   ** Warning ** CalcEquipmentFlowRates: "TOTAL HOT WATER LOAD" - Target water temperature is greater than the hot water temperature by (8.87E-002 C)
   **   ~~~   **  Environment=EXTREME_WINTER, at Simulation time=12/22 06:00 - 06:15
   **   ~~~   ** ...target water temperature     = 53.33 C
   **   ~~~   ** ...hot water temperature        = 53.24 C
   **   ~~~   ** ...Target water temperature should be less than or equal to the hot water temperature. Verify temperature setpoints and schedules.
   ** Warning ** SimHVAC: Maximum iterations (20) exceeded for all HVAC loops, at EXTREME_WINTER, 12/27 12:00 - 12:15
   **   ~~~   ** The solution for one or more of the Air Loop HVAC systems did not appear to converge
   **   ~~~   ** Air System Named = CENTRAL SYSTEM did not converge for mass flow rate
   **   ~~~   ** Check values should be zero. Most Recent values listed first.
   **   ~~~   ** Demand-to-Supply interface mass flow rate check value iteration history trace: 6.480058E-002,6.480058E-002,6.480058E-002,6.480058E-002,6.480058E-002,6.480058E-002,6.480058E-002,6.480058E-002,6.480058E-002,6.480058E-002,
   **   ~~~   ** Supply-to-demand interface deck 1 mass flow rate check value iteration history trace: 6.480058E-002,6.480058E-002,6.480058E-002,6.480058E-002,6.480058E-002,6.480058E-002,6.480058E-002,6.480058E-002,6.480058E-002,6.480058E-002,
   **   ~~~   ** Air System Named = CENTRAL SYSTEM did not converge for energy
   **   ~~~   ** Check values should be zero. Most Recent values listed first.
   **   ~~~   ** Demand-to-Supply interface energy check value iteration history trace: 1284.138186,1284.138186,1284.138186,1284.138186,1284.138186,1284.138186,1284.138186,1284.138186,1284.138186,1284.138186,
   **   ~~~   ** Supply-to-demand interface deck 1 energy check value iteration history trace: 2020.708738,2020.708738,2020.708738,2020.708737,2020.708737,2020.708737,2020.708737,2020.708737,2020.708737,2020.708737,
   ** Warning ** SimHVAC: Maximum iterations (20) exceeded for all HVAC loops, at EXTREME_WINTER, 01/05 18:45 - 18:50
   **   ~~~   ** The solution for one or more of the Air Loop HVAC systems did not appear to converge
   **   ~~~   ** Air System Named = CENTRAL SYSTEM did not converge for mass flow rate
   **   ~~~   ** Check values should be zero. Most Recent values listed first.
   **   ~~~   ** Demand-to-Supply interface mass flow rate check value iteration history trace: 7.561098E-002,7.561098E-002,7.561098E-002,7.561098E-002,7.561098E-002,7.561098E-002,7.561098E-002,7.561098E-002,7.561098E-002,7.561098E-002,
   **   ~~~   ** Supply-to-demand interface deck 1 mass flow rate check value iteration history trace: 7.561098E-002,7.561098E-002,7.561098E-002,7.561098E-002,7.561098E-002,7.561098E-002,7.561098E-002,7.561098E-002,7.561098E-002,7.561098E-002,
   **   ~~~   ** Air System Named = CENTRAL SYSTEM did not converge for energy
   **   ~~~   ** Check values should be zero. Most Recent values listed first.
   **   ~~~   ** Demand-to-Supply interface energy check value iteration history trace: 1492.716325,1492.716325,1492.716325,1492.716325,1492.716325,1492.716325,1492.716325,1492.716325,1492.716325,1492.716324,
   **   ~~~   ** Supply-to-demand interface deck 1 energy check value iteration history trace: 2358.372411,2358.372411,2358.372411,2358.372411,2358.372410,2358.372410,2358.372410,2358.372410,2358.372410,2358.372410,
   ** Warning ** SimHVAC: Maximum iterations (20) exceeded for all HVAC loops, at ANNUAL, 01/08 10:00 - 10:15
   **   ~~~   ** The solution for one or more of the Air Loop HVAC systems did not appear to converge
   **   ~~~   ** Air System Named = CENTRAL SYSTEM did not converge for mass flow rate
   **   ~~~   ** Check values should be zero. Most Recent values listed first.
   **   ~~~   ** Demand-to-Supply interface mass flow rate check value iteration history trace: 9.379303E-002,9.379303E-002,9.379303E-002,9.379303E-002,9.379303E-002,9.379303E-002,9.379303E-002,9.379303E-002,9.379303E-002,9.379303E-002,
   **   ~~~   ** Supply-to-demand interface deck 1 mass flow rate check value iteration history trace: 9.379303E-002,9.379303E-002,9.379303E-002,9.379303E-002,9.379303E-002,9.379303E-002,9.379303E-002,9.379303E-002,9.379303E-002,9.379303E-002,
   **   ~~~   ** Air System Named = CENTRAL SYSTEM did not converge for energy
   **   ~~~   ** Check values should be zero. Most Recent values listed first.
   **   ~~~   ** Demand-to-Supply interface energy check value iteration history trace: 1858.676548,1858.676547,1858.676547,1858.676547,1858.676547,1858.676547,1858.676547,1858.676547,1858.676547,1858.676547,
   **   ~~~   ** Supply-to-demand interface deck 1 energy check value iteration history trace: 2903.332356,2903.332355,2903.332355,2903.332355,2903.332355,2903.332355,2903.332355,2903.332354,2903.332354,2903.332354,
   ** Warning ** SimHVAC: Maximum iterations (20) exceeded for all HVAC loops, at ANNUAL, 01/08 10:15 - 10:30
   **   ~~~   ** The solution for one or more of the Air Loop HVAC systems did not appear to converge
   **   ~~~   ** Air System Named = CENTRAL SYSTEM did not converge for mass flow rate
   **   ~~~   ** Check values should be zero. Most Recent values listed first.
   **   ~~~   ** Demand-to-Supply interface mass flow rate check value iteration history trace: 9.078097E-002,9.078097E-002,9.078097E-002,9.078097E-002,9.078097E-002,9.078097E-002,9.078097E-002,9.078097E-002,9.078097E-002,9.078097E-002,
   **   ~~~   ** Supply-to-demand interface deck 1 mass flow rate check value iteration history trace: 9.078097E-002,9.078097E-002,9.078097E-002,9.078097E-002,9.078097E-002,9.078097E-002,9.078097E-002,9.078097E-002,9.078097E-002,9.078097E-002,
   **   ~~~   ** Air System Named = CENTRAL SYSTEM did not converge for energy
   **   ~~~   ** Check values should be zero. Most Recent values listed first.
   **   ~~~   ** Demand-to-Supply interface energy check value iteration history trace: 1786.533727,1786.533727,1786.533727,1786.533727,1786.533727,1786.533727,1786.533726,1786.533726,1786.533726,1786.533726,
   **   ~~~   ** Supply-to-demand interface deck 1 energy check value iteration history trace: 2818.430017,2818.430017,2818.430017,2818.430017,2818.430017,2818.430016,2818.430016,2818.430016,2818.430016,2818.430016,
   ** Warning ** SimHVAC: Maximum iterations (20) exceeded for all HVAC loops, at ANNUAL, 01/08 21:45 - 21:52
   **   ~~~   ** The solution for one or more of the Air Loop HVAC systems did not appear to converge
   **   ~~~   ** Air System Named = CENTRAL SYSTEM did not converge for mass flow rate
   **   ~~~   ** Check values should be zero. Most Recent values listed first.
   **   ~~~   ** Demand-to-Supply interface mass flow rate check value iteration history trace: 7.774979E-002,7.774979E-002,7.774979E-002,7.774979E-002,7.774979E-002,7.774979E-002,7.774979E-002,7.774979E-002,7.774979E-002,7.774979E-002,
   **   ~~~   ** Supply-to-demand interface deck 1 mass flow rate check value iteration history trace: 7.774979E-002,7.774979E-002,7.774979E-002,7.774979E-002,7.774979E-002,7.774979E-002,7.774979E-002,7.774979E-002,7.774979E-002,7.774979E-002,
   **   ~~~   ** Air System Named = CENTRAL SYSTEM did not converge for energy
   **   ~~~   ** Check values should be zero. Most Recent values listed first.
   **   ~~~   ** Demand-to-Supply interface energy check value iteration history trace: 1528.873239,1528.873239,1528.873239,1528.873239,1528.873238,1528.873238,1528.873238,1528.873238,1528.873238,1528.873238,
   **   ~~~   ** Supply-to-demand interface deck 1 energy check value iteration history trace: 2433.231965,2433.231964,2433.231964,2433.231964,2433.231964,2433.231964,2433.231964,2433.231964,2433.231964,2433.231963,
   ** Warning ** SimHVAC: Maximum iterations (20) exceeded for all HVAC loops, at ANNUAL, 01/14 10:00 - 10:02
   **   ~~~   ** The solution for one or more of the Air Loop HVAC systems did not appear to converge
   **   ~~~   ** Air System Named = CENTRAL SYSTEM did not converge for mass flow rate
   **   ~~~   ** Check values should be zero. Most Recent values listed first.
   **   ~~~   ** Demand-to-Supply interface mass flow rate check value iteration history trace: 9.425801E-002,9.425801E-002,9.425801E-002,9.425801E-002,9.425801E-002,9.425801E-002,9.425801E-002,9.425801E-002,9.425801E-002,9.425801E-002,
   **   ~~~   ** Supply-to-demand interface deck 1 mass flow rate check value iteration history trace: 9.425801E-002,9.425801E-002,9.425801E-002,9.425801E-002,9.425801E-002,9.425801E-002,9.425801E-002,9.425801E-002,9.425801E-002,9.425801E-002,
   **   ~~~   ** Air System Named = CENTRAL SYSTEM did not converge for energy
   **   ~~~   ** Check values should be zero. Most Recent values listed first.
   **   ~~~   ** Demand-to-Supply interface energy check value iteration history trace: 1867.851703,1867.851703,1867.851702,1867.851702,1867.851702,1867.851702,1867.851702,1867.851702,1867.851702,1867.851702,
   **   ~~~   ** Supply-to-demand interface deck 1 energy check value iteration history trace: 2884.030585,2884.030585,2884.030585,2884.030585,2884.030584,2884.030584,2884.030584,2884.030584,2884.030584,2884.030584,
   ** Warning ** SimHVAC: Maximum iterations (20) exceeded for all HVAC loops, at ANNUAL, 01/15 09:45 - 09:47
   **   ~~~   ** The solution for one or more of the Air Loop HVAC systems did not appear to converge
   **   ~~~   ** Air System Named = CENTRAL SYSTEM did not converge for mass flow rate
   **   ~~~   ** Check values should be zero. Most Recent values listed first.
   **   ~~~   ** Demand-to-Supply interface mass flow rate check value iteration history trace: 9.430871E-002,9.430871E-002,9.430871E-002,9.430871E-002,9.430871E-002,9.430871E-002,9.430871E-002,9.430871E-002,9.430871E-002,9.430871E-002,
   **   ~~~   ** Supply-to-demand interface deck 1 mass flow rate check value iteration history trace: 9.430871E-002,9.430871E-002,9.430871E-002,9.430871E-002,9.430871E-002,9.430871E-002,9.430871E-002,9.430871E-002,9.430871E-002,9.430871E-002,
   **   ~~~   ** Air System Named = CENTRAL SYSTEM did not converge for energy
   **   ~~~   ** Check values should be zero. Most Recent values listed first.
   **   ~~~   ** Demand-to-Supply interface energy check value iteration history trace: 1868.845295,1868.845294,1868.845294,1868.845294,1868.845294,1868.845294,1868.845294,1868.845294,1868.845294,1868.845294,
   **   ~~~   ** Supply-to-demand interface deck 1 energy check value iteration history trace: 2908.894443,2908.894443,2908.894443,2908.894443,2908.894443,2908.894442,2908.894442,2908.894442,2908.894442,2908.894442,
   ** Warning ** SimHVAC: Maximum iterations (20) exceeded for all HVAC loops, at ANNUAL, 01/20 16:00 - 16:03
   **   ~~~   ** The solution for one or more of the Air Loop HVAC systems did not appear to converge
   **   ~~~   ** Air System Named = CENTRAL SYSTEM did not converge for mass flow rate
   **   ~~~   ** Check values should be zero. Most Recent values listed first.
   **   ~~~   ** Demand-to-Supply interface mass flow rate check value iteration history trace: 7.580949E-002,7.580949E-002,7.580949E-002,7.580949E-002,7.580949E-002,7.580949E-002,7.580949E-002,7.580949E-002,7.580949E-002,7.580949E-002,
   **   ~~~   ** Supply-to-demand interface deck 1 mass flow rate check value iteration history trace: 7.580949E-002,7.580949E-002,7.580949E-002,7.580949E-002,7.580949E-002,7.580949E-002,7.580949E-002,7.580949E-002,7.580949E-002,7.580949E-002,
   **   ~~~   ** Air System Named = CENTRAL SYSTEM did not converge for energy
   **   ~~~   ** Check values should be zero. Most Recent values listed first.
   **   ~~~   ** Demand-to-Supply interface energy check value iteration history trace: 1502.306115,1502.306115,1502.306115,1502.306115,1502.306115,1502.306115,1502.306115,1502.306115,1502.306115,1502.306115,
   **   ~~~   ** Supply-to-demand interface deck 1 energy check value iteration history trace: 2403.573392,2403.573392,2403.573392,2403.573392,2403.573392,2403.573391,2403.573391,2403.573391,2403.573391,2403.573391,
   ** Warning ** SimHVAC: Maximum iterations (20) exceeded for all HVAC loops, at ANNUAL, 01/31 09:45 - 10:00
   **   ~~~   ** The solution for one or more of the Air Loop HVAC systems did not appear to converge
   **   ~~~   ** Air System Named = CENTRAL SYSTEM did not converge for mass flow rate
   **   ~~~   ** Check values should be zero. Most Recent values listed first.
   **   ~~~   ** Demand-to-Supply interface mass flow rate check value iteration history trace: 7.559031E-002,7.559031E-002,7.559031E-002,7.559031E-002,7.559031E-002,7.559031E-002,7.559031E-002,7.559031E-002,7.559031E-002,7.559031E-002,
   **   ~~~   ** Supply-to-demand interface deck 1 mass flow rate check value iteration history trace: 7.559031E-002,7.559031E-002,7.559031E-002,7.559031E-002,7.559031E-002,7.559031E-002,7.559031E-002,7.559031E-002,7.559031E-002,7.559031E-002,
   **   ~~~   ** Air System Named = CENTRAL SYSTEM did not converge for energy
   **   ~~~   ** Check values should be zero. Most Recent values listed first.
   **   ~~~   ** Demand-to-Supply interface energy check value iteration history trace: 1497.959756,1497.959756,1497.959756,1497.959756,1497.959755,1497.959755,1497.959755,1497.959755,1497.959755,1497.959755,
   **   ~~~   ** Supply-to-demand interface deck 1 energy check value iteration history trace: 2333.681164,2333.681164,2333.681164,2333.681164,2333.681164,2333.681164,2333.681164,2333.681163,2333.681163,2333.681163,
   ** Warning ** SimHVAC: Maximum iterations (20) exceeded for all HVAC loops, at ANNUAL, 02/12 19:45 - 20:00
   **   ~~~   ** The solution for one or more of the Air Loop HVAC systems did not appear to converge
   **   ~~~   ** Air System Named = CENTRAL SYSTEM did not converge for mass flow rate
   **   ~~~   ** Check values should be zero. Most Recent values listed first.
   **   ~~~   ** Demand-to-Supply interface mass flow rate check value iteration history trace: 9.202634E-002,9.202634E-002,9.202634E-002,9.202634E-002,9.202634E-002,9.202634E-002,9.202634E-002,9.202634E-002,9.202634E-002,9.202634E-002,
   **   ~~~   ** Supply-to-demand interface deck 1 mass flow rate check value iteration history trace: 9.202634E-002,9.202634E-002,9.202634E-002,9.202634E-002,9.202634E-002,9.202634E-002,9.202634E-002,9.202634E-002,9.202634E-002,9.202634E-002,
   **   ~~~   ** Air System Named = CENTRAL SYSTEM did not converge for energy
   **   ~~~   ** Check values should be zero. Most Recent values listed first.
   **   ~~~   ** Demand-to-Supply interface energy check value iteration history trace: 1800.734320,1800.734320,1800.734320,1800.734320,1800.734320,1800.734320,1800.734320,1800.734320,1800.734319,1800.734319,
   **   ~~~   ** Supply-to-demand interface deck 1 energy check value iteration history trace: 2846.715794,2846.715794,2846.715794,2846.715793,2846.715793,2846.715793,2846.715793,2846.715793,2846.715793,2846.715793,
   ** Warning ** SimHVAC: Maximum iterations (20) exceeded for all HVAC loops, at ANNUAL, 02/23 13:00 - 13:08
   **   ~~~   ** The solution for one or more of the Air Loop HVAC systems did not appear to converge
   **   ~~~   ** Air System Named = CENTRAL SYSTEM did not converge for mass flow rate
   **   ~~~   ** Check values should be zero. Most Recent values listed first.
   **   ~~~   ** Demand-to-Supply interface mass flow rate check value iteration history trace: 4.405248E-002,4.405248E-002,4.405248E-002,4.405248E-002,4.405248E-002,4.405248E-002,4.405248E-002,4.405248E-002,4.405248E-002,4.405248E-002,
   **   ~~~   ** Supply-to-demand interface deck 1 mass flow rate check value iteration history trace: 4.405248E-002,4.405248E-002,4.405248E-002,4.405248E-002,4.405248E-002,4.405248E-002,4.405248E-002,4.405248E-002,4.405248E-002,4.405248E-002,
   **   ~~~   ** Air System Named = CENTRAL SYSTEM did not converge for energy
   **   ~~~   ** Check values should be zero. Most Recent values listed first.
   **   ~~~   ** Demand-to-Supply interface energy check value iteration history trace: 874.247372,874.247372,874.247372,874.247372,874.247372,874.247372,874.247372,874.247372,874.247371,874.247371,
   **   ~~~   ** Supply-to-demand interface deck 1 energy check value iteration history trace: 1436.344851,1436.344851,1436.344851,1436.344850,1436.344850,1436.344850,1436.344850,1436.344850,1436.344850,1436.344850,
   ** Warning ** SimHVAC: Maximum iterations (20) exceeded for all HVAC loops, at ANNUAL, 02/26 12:00 - 12:08
   **   ~~~   ** The solution for one or more of the Air Loop HVAC systems did not appear to converge
   **   ~~~   ** Air System Named = CENTRAL SYSTEM did not converge for mass flow rate
   **   ~~~   ** Check values should be zero. Most Recent values listed first.
   **   ~~~   ** Demand-to-Supply interface mass flow rate check value iteration history trace: 6.912472E-002,6.912472E-002,6.912472E-002,6.912472E-002,6.912472E-002,6.912472E-002,6.912472E-002,6.912472E-002,6.912472E-002,6.912472E-002,
   **   ~~~   ** Supply-to-demand interface deck 1 mass flow rate check value iteration history trace: 6.912472E-002,6.912472E-002,6.912472E-002,6.912472E-002,6.912472E-002,6.912472E-002,6.912472E-002,6.912472E-002,6.912472E-002,6.912472E-002,
   **   ~~~   ** Air System Named = CENTRAL SYSTEM did not converge for energy
   **   ~~~   ** Check values should be zero. Most Recent values listed first.
   **   ~~~   ** Demand-to-Supply interface energy check value iteration history trace: 1369.849691,1369.849690,1369.849690,1369.849690,1369.849690,1369.849690,1369.849690,1369.849690,1369.849690,1369.849690,
   **   ~~~   ** Supply-to-demand interface deck 1 energy check value iteration history trace: 2269.298975,2269.298975,2269.298975,2269.298975,2269.298975,2269.298975,2269.298974,2269.298974,2269.298974,2269.298974,
   ** Warning ** SimHVAC: Maximum iterations (20) exceeded for all HVAC loops, at ANNUAL, 03/08 12:00 - 12:08
   **   ~~~   ** The solution for one or more of the Air Loop HVAC systems did not appear to converge
   **   ~~~   ** Air System Named = CENTRAL SYSTEM did not converge for mass flow rate
   **   ~~~   ** Check values should be zero. Most Recent values listed first.
   **   ~~~   ** Demand-to-Supply interface mass flow rate check value iteration history trace: 4.794789E-002,4.794789E-002,4.794789E-002,4.794789E-002,4.794789E-002,4.794789E-002,4.794789E-002,4.794789E-002,4.794789E-002,4.794789E-002,
   **   ~~~   ** Supply-to-demand interface deck 1 mass flow rate check value iteration history trace: 4.794789E-002,4.794789E-002,4.794789E-002,4.794789E-002,4.794789E-002,4.794789E-002,4.794789E-002,4.794789E-002,4.794789E-002,4.794789E-002,
   **   ~~~   ** Air System Named = CENTRAL SYSTEM did not converge for energy
   **   ~~~   ** Check values should be zero. Most Recent values listed first.
   **   ~~~   ** Demand-to-Supply interface energy check value iteration history trace: 955.967657,955.967657,955.967657,955.967656,955.967656,955.967656,955.967656,955.967656,955.967656,955.967656,
   **   ~~~   ** Supply-to-demand interface deck 1 energy check value iteration history trace: 1789.319766,1789.319766,1789.319765,1789.319765,1789.319765,1789.319765,1789.319764,1789.319764,1789.319764,1789.319763,
   **   ~~~   ** Node named ZONE INLET NODE shows oscillating temperatures across iterations with a repeated value of 37.138118
   **   ~~~   ** Node named ZONE INLET NODE temperature [C] iteration history trace (most recent first): 37.138118,37.138118,37.138118,37.138117,37.138117,37.138117,37.138117,37.138116,37.138116,37.138116,
   ** Warning ** SimHVAC: Maximum iterations (20) exceeded for all HVAC loops, at ANNUAL, 03/11 10:00 - 10:15
   **   ~~~   ** The solution for one or more of the Air Loop HVAC systems did not appear to converge
   **   ~~~   ** Air System Named = CENTRAL SYSTEM did not converge for mass flow rate
   **   ~~~   ** Check values should be zero. Most Recent values listed first.
   **   ~~~   ** Demand-to-Supply interface mass flow rate check value iteration history trace: 7.303917E-002,7.303917E-002,7.303917E-002,7.303917E-002,7.303917E-002,7.303917E-002,7.303917E-002,7.303917E-002,7.303917E-002,7.303917E-002,
   **   ~~~   ** Supply-to-demand interface deck 1 mass flow rate check value iteration history trace: 7.303917E-002,7.303917E-002,7.303917E-002,7.303917E-002,7.303917E-002,7.303917E-002,7.303917E-002,7.303917E-002,7.303917E-002,7.303917E-002,
   **   ~~~   ** Air System Named = CENTRAL SYSTEM did not converge for energy
   **   ~~~   ** Check values should be zero. Most Recent values listed first.
   **   ~~~   ** Demand-to-Supply interface energy check value iteration history trace: 1447.441725,1447.441725,1447.441725,1447.441725,1447.441725,1447.441725,1447.441725,1447.441725,1447.441725,1447.441724,
   **   ~~~   ** Supply-to-demand interface deck 1 energy check value iteration history trace: 2412.849937,2412.849936,2412.849936,2412.849936,2412.849936,2412.849936,2412.849936,2412.849936,2412.849936,2412.849936,
   ************* Simulation Error Summary *************
   ** Warning ** The following Report Variables were requested but not generated -- check.rdd file
   **   ~~~   ** Either the IDF did not contain these elements, the variable name is misspelled,
   **   ~~~   ** or the requested variable is an advanced output which requires Output : Diagnostics, DisplayAdvancedReportVariables;
   ************* Key=*, VarName=BASEBOARD TOTAL HEATING ENERGY, Frequency=
   ************* Key=*, VarName=WATER HEATER NATURALGAS ENERGY, Frequency=
   ************* Key=*, VarName=COOLING COIL TOTAL HEATING ENERGY, Frequency=
   ************* There are 34 unused schedules in input.
   ************* There are 388 unused week schedules in input.
   ************* There are 396 unused day schedules in input.
   ************* Use Output:Diagnostics,DisplayUnusedSchedules; to see them.
   *************
   ************* ===== Recurring Error Summary =====
   ************* The following recurring error messages occurred.
   *************
   *************  ** Warning ** "TOTAL HOT WATER LOAD" - Target water temperature should be less than or equal to the hot water temperature error continues...
   *************  **   ~~~   **   This error occurred 171143 total times;
   *************  **   ~~~   **   during Warmup 0 times;
   *************  **   ~~~   **   during Sizing 0 times.
   *************  **   ~~~   **   Max=10.054498  Min=3.228445E-003
   *************
   *************  ** Warning ** SimHVAC: Exceeding Maximum iterations for all HVAC loops, during ANNUAL continues
   *************  **   ~~~   **   This error occurred 23 total times;
   *************  **   ~~~   **   during Warmup 0 times;
   *************  **   ~~~   **   during Sizing 0 times.
   *************
   *************
   ************* ===== Final Error Summary =====
   ************* The following error categories occurred.  Consider correcting or noting.
   ************* Nominally Unused Constructions
   ************* ..The nominally unused constructions warning is provided to alert you to potential conditions that can cause
   ************* ..extra time during simulation. Each construction is calculated by the algorithm indicated in the HeatBalanceAlgorithm
   ************* ..object. You may remove the constructions indicated (when you use the DisplayExtraWarnings option).
   *************
   ************* EnergyPlus Warmup Error Summary. During Warmup: 1 Warning; 0 Severe Errors.
   ************* EnergyPlus Sizing Error Summary. During Sizing: 4 Warning; 0 Severe Errors.
   ************* EnergyPlus Completed Successfully-- 171198 Warning; 0 Severe Errors; Elapsed Time=00hr 06min 34.32sec
