Program Version,EnergyPlus, Version 22.2.0-c249759bad, YMD=2023.09.01 19:18,
   ************* Beginning Zone Sizing Calculations
   ** Warning ** ProcessScheduleInput: Schedule:Constant="ALWAYS ON DISCRETE", Schedule Type Limits Name="ONOFF" not found -- will not be validated
   ** Warning ** Foundation:Kiva="KIVA FOUNDATION", no Interior Horizontal Insulation Material Name defined
   **   ~~~   ** Interior Horizontal Insulation Depth will not be used.
   ** Warning ** CheckUsedConstructions: There are 15 nominally unused constructions in input.
   **   ~~~   ** Each Unused construction is shown.
   ************* Construction=INTERIOR FLOOR
   ************* Construction=INTERIOR WINDOW
   ************* Construction=EXTERIOR DOOR
   ************* Construction=INTERIOR DOOR
   ************* Construction=GABLE CONSTRUCTION
   ************* Construction=CRAWL_FLOOR
   ************* Construction=INSULATED PIPE
   ************* Construction=PLAIN PIPE
   ************* Construction=TDD PIPE
   ************* Construction=TDD DOME
   ************* Construction=TDD DIFFUSER
   ************* Construction=CRAWL WALL
   ************* Construction=CEILING-FLOOR-LAYER
   ************* Construction=SLAB CONSTRUCTION W FULL R10 INSULATION
   ************* Construction=SLAB CONSTRUCTION W FULL R5 INSULATION
   ** Warning ** GetDXCoils: Coil:Heating:DX:SingleSpeed="DX_HEATING_COIL" curve values
   **   ~~~   ** ... Defrost Energy Input Ratio Function of Temperature Curve Name = DEFROSTEIR output is not equal to 1.0 (+ or - 10%) at rated conditions.
   **   ~~~   ** ... Curve output at rated conditions = 0.152
   ************* Beginning System Sizing Calculations
   ************* Beginning Plant Sizing Calculations
   ** Warning ** Coil:WaterHeating:AirToWaterHeatPump:Wrapped "HEAT PUMP WATER HEATER EVAPORATOR": Rated air volume flow rate per watt of rated total water heating capacity is out of range
   **   ~~~   ** Min Rated Vol Flow Per Watt=[4.027E-005], Rated Vol Flow Per Watt=[1.510E-004], Max Rated Vol Flow Per Watt=[8.056E-005]. See Input-Output Reference Manual for valid range.
   ************* SizeFan: : Potential issue with equipment sizing for Fan:OnOff HEAT PUMP WATER HEATER FAN
   **   ~~~   ** User-Specified Maximum Flow Rate [m3/s] = 0.22653
   **   ~~~   ** differs from Design Size Maximum Flow Rate [m3/s] = 7.55250E-002
   **   ~~~   ** This may, or may not, indicate mismatched component sizes.
   **   ~~~   ** Verify that the value entered is intended and is consistent with other components.
   ** Warning ** Water heater = WATER HEATER TANK:  Recovery Efficiency and Energy Factor could not be calculated during the test for standard ratings
   **   ~~~   ** Setpoint was never recovered and/or heater never turned on
   ** Warning ** Check input. Pump nominal power or motor efficiency is set to 0, for pump=MAINS PRESSURE
   ** Warning ** Output:Meter: invalid Key Name="ELECTRIC_RANGE:INTERIOREQUIPMENT:ELECTRICITY" - not found.
   ** Warning ** Output:Meter: invalid Key Name="ELECTRIC_DRYER:INTERIOREQUIPMENT:ELECTRICITY" - not found.
   ** Warning ** Output:Meter: invalid Key Name="HEATRECOVERY:ELECTRICITY" - not found.
   ** Warning ** Output:Meter: invalid Key Name="HEATING:NATURALGAS" - not found.
   ** Warning ** Output:Meter: invalid Key Name="WATERSYSTEMS:NATURALGAS" - not found.
   ** Warning ** Output:Meter: invalid Key Name="PROPANE:FACILITY" - not found.
   ** Warning ** Output:Meter: invalid Key Name="HEATING:PROPANE" - not found.
   ************* Testing Individual Branch Integrity
   ************* All Branches passed integrity testing
   ************* Testing Individual Supply Air Path Integrity
   ************* All Supply Air Paths passed integrity testing
   ************* Testing Individual Return Air Path Integrity
   ************* All Return Air Paths passed integrity testing
   ************* No node connection errors were found.
   ************* Beginning Simulation
   ** Warning ** AirflowNetwork::Solver::validate_distribution: Heat pump water heater is simulated along with an AirflowNetwork but is not included in the AirflowNetwork.
   ** Warning ** CalcEquipmentFlowRates: "TOTAL HOT WATER LOAD" - Target water temperature is greater than the hot water temperature by (0.81 C)
   **   ~~~   **  Environment=EXTREME_WINTER, at Simulation time=01/27 06:45 - 07:00
   **   ~~~   ** ...target water temperature     = 53.33 C
   **   ~~~   ** ...hot water temperature        = 52.52 C
   **   ~~~   ** ...Target water temperature should be less than or equal to the hot water temperature. Verify temperature setpoints and schedules.
   ** Warning ** SimHVAC: Maximum iterations (20) exceeded for all HVAC loops, at ANNUAL, 01/26 10:30 - 10:45
   **   ~~~   ** The solution for one or more of the Air Loop HVAC systems did not appear to converge
   **   ~~~   ** Air System Named = CENTRAL SYSTEM did not converge for mass flow rate
   **   ~~~   ** Check values should be zero. Most Recent values listed first.
   **   ~~~   ** Demand-to-Supply interface mass flow rate check value iteration history trace: 8.044604E-002,8.044604E-002,8.044604E-002,8.044604E-002,8.044604E-002,8.044604E-002,8.044604E-002,8.044604E-002,8.044604E-002,8.044604E-002,
   **   ~~~   ** Supply-to-demand interface deck 1 mass flow rate check value iteration history trace: 8.044604E-002,8.044604E-002,8.044604E-002,8.044604E-002,8.044604E-002,8.044604E-002,8.044604E-002,8.044604E-002,8.044604E-002,8.044604E-002,
   **   ~~~   ** Air System Named = CENTRAL SYSTEM did not converge for energy
   **   ~~~   ** Check values should be zero. Most Recent values listed first.
   **   ~~~   ** Demand-to-Supply interface energy check value iteration history trace: 1594.010844,1594.010844,1594.010844,1594.010844,1594.010844,1594.010843,1594.010843,1594.010843,1594.010843,1594.010843,
   **   ~~~   ** Supply-to-demand interface deck 1 energy check value iteration history trace: 2679.236967,2679.236966,2679.236966,2679.236966,2679.236966,2679.236966,2679.236966,2679.236965,2679.236965,2679.236965,
   ** Warning ** SimHVAC: Maximum iterations (20) exceeded for all HVAC loops, at ANNUAL, 02/18 12:30 - 12:38
   **   ~~~   ** The solution for one or more of the Air Loop HVAC systems did not appear to converge
   **   ~~~   ** Air System Named = CENTRAL SYSTEM did not converge for mass flow rate
   **   ~~~   ** Check values should be zero. Most Recent values listed first.
   **   ~~~   ** Demand-to-Supply interface mass flow rate check value iteration history trace: 6.650615E-002,6.650615E-002,6.650615E-002,6.650615E-002,6.650615E-002,6.650615E-002,6.650615E-002,6.650615E-002,6.650615E-002,6.650615E-002,
   **   ~~~   ** Supply-to-demand interface deck 1 mass flow rate check value iteration history trace: 6.650615E-002,6.650615E-002,6.650615E-002,6.650615E-002,6.650615E-002,6.650615E-002,6.650615E-002,6.650615E-002,6.650615E-002,6.650615E-002,
   **   ~~~   ** Air System Named = CENTRAL SYSTEM did not converge for energy
   **   ~~~   ** Check values should be zero. Most Recent values listed first.
   **   ~~~   ** Demand-to-Supply interface energy check value iteration history trace: 1317.861694,1317.861694,1317.861694,1317.861694,1317.861694,1317.861693,1317.861693,1317.861693,1317.861693,1317.861693,
   **   ~~~   ** Supply-to-demand interface deck 1 energy check value iteration history trace: 2239.329709,2239.329709,2239.329709,2239.329709,2239.329709,2239.329709,2239.329709,2239.329708,2239.329708,2239.329708,
   ** Warning ** SimHVAC: Maximum iterations (20) exceeded for all HVAC loops, at ANNUAL, 03/05 18:45 - 19:00
   **   ~~~   ** The solution for one or more of the Air Loop HVAC systems did not appear to converge
   **   ~~~   ** Air System Named = CENTRAL SYSTEM did not converge for mass flow rate
   **   ~~~   ** Check values should be zero. Most Recent values listed first.
   **   ~~~   ** Demand-to-Supply interface mass flow rate check value iteration history trace: 4.755435E-002,4.755435E-002,4.755435E-002,4.755435E-002,4.755435E-002,4.755435E-002,4.755435E-002,4.755435E-002,4.755435E-002,4.755435E-002,
   **   ~~~   ** Supply-to-demand interface deck 1 mass flow rate check value iteration history trace: 4.755435E-002,4.755435E-002,4.755435E-002,4.755435E-002,4.755435E-002,4.755435E-002,4.755435E-002,4.755435E-002,4.755435E-002,4.755435E-002,
   **   ~~~   ** Air System Named = CENTRAL SYSTEM did not converge for energy
   **   ~~~   ** Check values should be zero. Most Recent values listed first.
   **   ~~~   ** Demand-to-Supply interface energy check value iteration history trace: 940.878019,940.878019,940.878019,940.878019,940.878019,940.878019,940.878019,940.878019,940.878018,940.878018,
   **   ~~~   ** Supply-to-demand interface deck 1 energy check value iteration history trace: 1409.030859,1409.030859,1409.030859,1409.030859,1409.030859,1409.030859,1409.030859,1409.030859,1409.030858,1409.030858,
   ** Warning ** SimHVAC: Maximum iterations (20) exceeded for all HVAC loops, at ANNUAL, 03/26 09:15 - 09:20
   **   ~~~   ** The solution for one or more of the Air Loop HVAC systems did not appear to converge
   **   ~~~   ** Air System Named = CENTRAL SYSTEM did not converge for mass flow rate
   **   ~~~   ** Check values should be zero. Most Recent values listed first.
   **   ~~~   ** Demand-to-Supply interface mass flow rate check value iteration history trace: 7.250143E-002,7.250143E-002,7.250143E-002,7.250143E-002,7.250143E-002,7.250143E-002,7.250143E-002,7.250143E-002,7.250143E-002,7.250143E-002,
   **   ~~~   ** Supply-to-demand interface deck 1 mass flow rate check value iteration history trace: 7.250143E-002,7.250143E-002,7.250143E-002,7.250143E-002,7.250143E-002,7.250143E-002,7.250143E-002,7.250143E-002,7.250143E-002,7.250143E-002,
   **   ~~~   ** Air System Named = CENTRAL SYSTEM did not converge for energy
   **   ~~~   ** Check values should be zero. Most Recent values listed first.
   **   ~~~   ** Demand-to-Supply interface energy check value iteration history trace: 1436.746791,1436.746791,1436.746791,1436.746791,1436.746791,1436.746791,1436.746791,1436.746791,1436.746791,1436.746791,
   **   ~~~   ** Supply-to-demand interface deck 1 energy check value iteration history trace: 2440.824333,2440.824333,2440.824333,2440.824333,2440.824333,2440.824332,2440.824332,2440.824332,2440.824332,2440.824332,
   ** Warning ** SimHVAC: Maximum iterations (20) exceeded for all HVAC loops, at ANNUAL, 04/06 02:45 - 03:00
   **   ~~~   ** The solution for one or more of the Air Loop HVAC systems did not appear to converge
   **   ~~~   ** Air System Named = CENTRAL SYSTEM did not converge for mass flow rate
   **   ~~~   ** Check values should be zero. Most Recent values listed first.
   **   ~~~   ** Demand-to-Supply interface mass flow rate check value iteration history trace: 7.880640E-002,7.880640E-002,7.880640E-002,7.880640E-002,7.880640E-002,7.880640E-002,7.880640E-002,7.880640E-002,7.880640E-002,7.880640E-002,
   **   ~~~   ** Supply-to-demand interface deck 1 mass flow rate check value iteration history trace: 7.880640E-002,7.880640E-002,7.880640E-002,7.880640E-002,7.880640E-002,7.880640E-002,7.880640E-002,7.880640E-002,7.880640E-002,7.880640E-002,
   **   ~~~   ** Air System Named = CENTRAL SYSTEM did not converge for energy
   **   ~~~   ** Check values should be zero. Most Recent values listed first.
   **   ~~~   ** Demand-to-Supply interface energy check value iteration history trace: 1470.330365,1470.330365,1470.330365,1470.330365,1470.330365,1470.330365,1470.330365,1470.330365,1470.330364,1470.330364,
   **   ~~~   ** Supply-to-demand interface deck 1 energy check value iteration history trace: 2297.159692,2297.159692,2297.159692,2297.159692,2297.159692,2297.159692,2297.159692,2297.159692,2297.159691,2297.159691,
   ** Warning ** SimHVAC: Maximum iterations (20) exceeded for all HVAC loops, at ANNUAL, 04/07 17:15 - 17:20
   **   ~~~   ** The solution for one or more of the Air Loop HVAC systems did not appear to converge
   **   ~~~   ** Air System Named = CENTRAL SYSTEM did not converge for mass flow rate
   **   ~~~   ** Check values should be zero. Most Recent values listed first.
   **   ~~~   ** Demand-to-Supply interface mass flow rate check value iteration history trace: 5.409218E-002,5.409218E-002,5.409218E-002,5.409218E-002,5.409218E-002,5.409218E-002,5.409218E-002,5.409218E-002,5.409218E-002,5.409218E-002,
   **   ~~~   ** Supply-to-demand interface deck 1 mass flow rate check value iteration history trace: 5.409218E-002,5.409218E-002,5.409218E-002,5.409218E-002,5.409218E-002,5.409218E-002,5.409218E-002,5.409218E-002,5.409218E-002,5.409218E-002,
   **   ~~~   ** Air System Named = CENTRAL SYSTEM did not converge for energy
   **   ~~~   ** Check values should be zero. Most Recent values listed first.
   **   ~~~   ** Demand-to-Supply interface energy check value iteration history trace: 1071.802347,1071.802347,1071.802346,1071.802346,1071.802346,1071.802346,1071.802346,1071.802346,1071.802346,1071.802346,
   **   ~~~   ** Supply-to-demand interface deck 1 energy check value iteration history trace: 1815.036622,1815.036622,1815.036621,1815.036621,1815.036621,1815.036621,1815.036621,1815.036621,1815.036621,1815.036621,
   ** Warning ** SimHVAC: Maximum iterations (20) exceeded for all HVAC loops, at ANNUAL, 04/10 08:00 - 08:15
   **   ~~~   ** The solution for one or more of the Air Loop HVAC systems did not appear to converge
   **   ~~~   ** Air System Named = CENTRAL SYSTEM did not converge for mass flow rate
   **   ~~~   ** Check values should be zero. Most Recent values listed first.
   **   ~~~   ** Demand-to-Supply interface mass flow rate check value iteration history trace: 8.368154E-002,8.368154E-002,8.368154E-002,8.368154E-002,8.368154E-002,8.368154E-002,8.368154E-002,8.368154E-002,8.368154E-002,8.368154E-002,
   **   ~~~   ** Supply-to-demand interface deck 1 mass flow rate check value iteration history trace: 8.368154E-002,8.368154E-002,8.368154E-002,8.368154E-002,8.368154E-002,8.368154E-002,8.368154E-002,8.368154E-002,8.368154E-002,8.368154E-002,
   **   ~~~   ** Air System Named = CENTRAL SYSTEM did not converge for energy
   **   ~~~   ** Check values should be zero. Most Recent values listed first.
   **   ~~~   ** Demand-to-Supply interface energy check value iteration history trace: 1658.317553,1658.317553,1658.317553,1658.317553,1658.317553,1658.317552,1658.317552,1658.317552,1658.317552,1658.317552,
   **   ~~~   ** Supply-to-demand interface deck 1 energy check value iteration history trace: 2775.465182,2775.465182,2775.465182,2775.465182,2775.465182,2775.465181,2775.465181,2775.465181,2775.465181,2775.465181,
   ** Warning ** SimHVAC: Maximum iterations (20) exceeded for all HVAC loops, at ANNUAL, 04/21 12:30 - 12:45
   **   ~~~   ** The solution for one or more of the Air Loop HVAC systems did not appear to converge
   **   ~~~   ** Air System Named = CENTRAL SYSTEM did not converge for mass flow rate
   **   ~~~   ** Check values should be zero. Most Recent values listed first.
   **   ~~~   ** Demand-to-Supply interface mass flow rate check value iteration history trace: 5.344596E-002,5.344596E-002,5.344596E-002,5.344596E-002,5.344596E-002,5.344596E-002,5.344596E-002,5.344596E-002,5.344596E-002,5.344596E-002,
   **   ~~~   ** Supply-to-demand interface deck 1 mass flow rate check value iteration history trace: 5.344596E-002,5.344596E-002,5.344596E-002,5.344596E-002,5.344596E-002,5.344596E-002,5.344596E-002,5.344596E-002,5.344596E-002,5.344596E-002,
   **   ~~~   ** Air System Named = CENTRAL SYSTEM did not converge for energy
   **   ~~~   ** Check values should be zero. Most Recent values listed first.
   **   ~~~   ** Demand-to-Supply interface energy check value iteration history trace: 1059.193519,1059.193519,1059.193519,1059.193519,1059.193519,1059.193519,1059.193519,1059.193519,1059.193519,1059.193519,
   **   ~~~   ** Supply-to-demand interface deck 1 energy check value iteration history trace: 1876.686791,1876.686791,1876.686791,1876.686791,1876.686791,1876.686791,1876.686791,1876.686790,1876.686790,1876.686790,
   ** Warning ** SimHVAC: Maximum iterations (20) exceeded for all HVAC loops, at ANNUAL, 06/03 06:23 - 06:30
   **   ~~~   ** The solution for one or more of the Air Loop HVAC systems did not appear to converge
   **   ~~~   ** Air System Named = CENTRAL SYSTEM did not converge for mass flow rate
   **   ~~~   ** Check values should be zero. Most Recent values listed first.
   **   ~~~   ** Demand-to-Supply interface mass flow rate check value iteration history trace: 0.114919,0.114919,0.114919,0.114919,0.114919,0.114919,0.114919,0.114919,0.114919,0.114919,
   **   ~~~   ** Supply-to-demand interface deck 1 mass flow rate check value iteration history trace: 0.114919,0.114919,0.114919,0.114919,0.114919,0.114919,0.114919,0.114919,0.114919,0.114919,
   **   ~~~   ** Air System Named = CENTRAL SYSTEM did not converge for energy
   **   ~~~   ** Check values should be zero. Most Recent values listed first.
   **   ~~~   ** Demand-to-Supply interface energy check value iteration history trace: 2700.782474,2700.782474,2700.782474,2700.782475,2700.782475,2700.782475,2700.782475,2700.782475,2700.782476,2700.782476,
   **   ~~~   ** Supply-to-demand interface deck 1 energy check value iteration history trace: 1598.663132,1598.663132,1598.663132,1598.663132,1598.663132,1598.663132,1598.663132,1598.663132,1598.663132,1598.663133,
   ** Warning ** SimHVAC: Maximum iterations (20) exceeded for all HVAC loops, at ANNUAL, 06/13 14:45 - 15:00
   **   ~~~   ** The solution for one or more of the Air Loop HVAC systems did not appear to converge
   **   ~~~   ** Air System Named = CENTRAL SYSTEM did not converge for mass flow rate
   **   ~~~   ** Check values should be zero. Most Recent values listed first.
   **   ~~~   ** Demand-to-Supply interface mass flow rate check value iteration history trace: 5.059238E-002,5.059238E-002,5.059238E-002,5.059238E-002,5.059238E-002,5.059238E-002,5.059238E-002,5.059238E-002,5.059238E-002,5.059238E-002,
   **   ~~~   ** Supply-to-demand interface deck 1 mass flow rate check value iteration history trace: 5.059238E-002,5.059238E-002,5.059238E-002,5.059238E-002,5.059238E-002,5.059238E-002,5.059238E-002,5.059238E-002,5.059238E-002,5.059238E-002,
   **   ~~~   ** Air System Named = CENTRAL SYSTEM did not converge for energy
   **   ~~~   ** Check values should be zero. Most Recent values listed first.
   **   ~~~   ** Demand-to-Supply interface energy check value iteration history trace: 1188.526751,1188.526751,1188.526751,1188.526752,1188.526752,1188.526752,1188.526752,1188.526752,1188.526752,1188.526752,
   **   ~~~   ** Supply-to-demand interface deck 1 energy check value iteration history trace: 608.785972,608.785972,608.785973,608.785973,608.785973,608.785973,608.785973,608.785973,608.785973,608.785973,
   ** Warning ** SimHVAC: Maximum iterations (20) exceeded for all HVAC loops, at ANNUAL, 10/12 10:05 - 10:10
   **   ~~~   ** The solution for one or more of the Air Loop HVAC systems did not appear to converge
   **   ~~~   ** Air System Named = CENTRAL SYSTEM did not converge for mass flow rate
   **   ~~~   ** Check values should be zero. Most Recent values listed first.
   **   ~~~   ** Demand-to-Supply interface mass flow rate check value iteration history trace: 0.150311,0.150311,0.150311,0.150311,0.150311,0.150311,0.150311,0.150311,0.150311,0.150311,
   **   ~~~   ** Supply-to-demand interface deck 1 mass flow rate check value iteration history trace: 0.150311,0.150311,0.150311,0.150311,0.150311,0.150311,0.150311,0.150311,0.150311,0.150311,
   **   ~~~   ** Air System Named = CENTRAL SYSTEM did not converge for energy
   **   ~~~   ** Check values should be zero. Most Recent values listed first.
   **   ~~~   ** Demand-to-Supply interface energy check value iteration history trace: 3573.931892,3573.931892,3573.931893,3573.931893,3573.931893,3573.931893,3573.931894,3573.931894,3573.931894,3573.931894,
   **   ~~~   ** Supply-to-demand interface deck 1 energy check value iteration history trace: 1829.322636,1829.322636,1829.322636,1829.322636,1829.322636,1829.322636,1829.322636,1829.322637,1829.322637,1829.322637,
   ** Warning ** SimHVAC: Maximum iterations (20) exceeded for all HVAC loops, at ANNUAL, 10/27 07:34 - 07:38
   **   ~~~   ** The solution for one or more of the Air Loop HVAC systems did not appear to converge
   **   ~~~   ** Air System Named = CENTRAL SYSTEM did not converge for mass flow rate
   **   ~~~   ** Check values should be zero. Most Recent values listed first.
   **   ~~~   ** Demand-to-Supply interface mass flow rate check value iteration history trace: 0.103490,0.103490,0.103490,0.103490,0.103490,0.103490,0.103490,0.103490,0.103490,0.103490,
   **   ~~~   ** Supply-to-demand interface deck 1 mass flow rate check value iteration history trace: 0.103490,0.103490,0.103490,0.103490,0.103490,0.103490,0.103490,0.103490,0.103490,0.103490,
   **   ~~~   ** Air System Named = CENTRAL SYSTEM did not converge for energy
   **   ~~~   ** Check values should be zero. Most Recent values listed first.
   **   ~~~   ** Demand-to-Supply interface energy check value iteration history trace: 2050.723205,2050.723205,2050.723205,2050.723205,2050.723205,2050.723204,2050.723204,2050.723204,2050.723204,2050.723204,
   **   ~~~   ** Supply-to-demand interface deck 1 energy check value iteration history trace: 3076.946104,3076.946104,3076.946103,3076.946103,3076.946103,3076.946103,3076.946103,3076.946102,3076.946102,3076.946102,
   ** Warning ** SimHVAC: Maximum iterations (20) exceeded for all HVAC loops, at ANNUAL, 11/09 02:15 - 02:30
   **   ~~~   ** The solution for one or more of the Air Loop HVAC systems did not appear to converge
   **   ~~~   ** Air System Named = CENTRAL SYSTEM did not converge for mass flow rate
   **   ~~~   ** Check values should be zero. Most Recent values listed first.
   **   ~~~   ** Demand-to-Supply interface mass flow rate check value iteration history trace: 8.848956E-002,8.848956E-002,8.848956E-002,8.848956E-002,8.848956E-002,8.848956E-002,8.848956E-002,8.848956E-002,8.848956E-002,8.848956E-002,
   **   ~~~   ** Supply-to-demand interface deck 1 mass flow rate check value iteration history trace: 8.848956E-002,8.848956E-002,8.848956E-002,8.848956E-002,8.848956E-002,8.848956E-002,8.848956E-002,8.848956E-002,8.848956E-002,8.848956E-002,
   **   ~~~   ** Air System Named = CENTRAL SYSTEM did not converge for energy
   **   ~~~   ** Check values should be zero. Most Recent values listed first.
   **   ~~~   ** Demand-to-Supply interface energy check value iteration history trace: 1673.676137,1673.676136,1673.676136,1673.676136,1673.676136,1673.676136,1673.676136,1673.676136,1673.676136,1673.676136,
   **   ~~~   ** Supply-to-demand interface deck 1 energy check value iteration history trace: 2569.521481,2569.521481,2569.521481,2569.521480,2569.521480,2569.521480,2569.521480,2569.521480,2569.521480,2569.521480,
   ** Warning ** SimHVAC: Maximum iterations (20) exceeded for all HVAC loops, at ANNUAL, 11/23 10:38 - 10:45
   **   ~~~   ** The solution for one or more of the Air Loop HVAC systems did not appear to converge
   **   ~~~   ** Air System Named = CENTRAL SYSTEM did not converge for mass flow rate
   **   ~~~   ** Check values should be zero. Most Recent values listed first.
   **   ~~~   ** Demand-to-Supply interface mass flow rate check value iteration history trace: 8.198690E-002,8.198690E-002,8.198690E-002,8.198690E-002,8.198690E-002,8.198690E-002,8.198690E-002,8.198690E-002,8.198690E-002,8.198690E-002,
   **   ~~~   ** Supply-to-demand interface deck 1 mass flow rate check value iteration history trace: 8.198690E-002,8.198690E-002,8.198690E-002,8.198690E-002,8.198690E-002,8.198690E-002,8.198690E-002,8.198690E-002,8.198690E-002,8.198690E-002,
   **   ~~~   ** Air System Named = CENTRAL SYSTEM did not converge for energy
   **   ~~~   ** Check values should be zero. Most Recent values listed first.
   **   ~~~   ** Demand-to-Supply interface energy check value iteration history trace: 1624.540803,1624.540803,1624.540803,1624.540802,1624.540802,1624.540802,1624.540801,1624.540801,1624.540801,1624.540800,
   **   ~~~   ** Supply-to-demand interface deck 1 energy check value iteration history trace: 2700.922727,2700.922726,2700.922726,2700.922725,2700.922725,2700.922724,2700.922724,2700.922723,2700.922723,2700.922722,
   **   ~~~   ** Node named ZONE INLET NODE shows oscillating temperatures across iterations with a repeated value of 32.784541
   **   ~~~   ** Node named ZONE INLET NODE temperature [C] iteration history trace (most recent first): 32.784541,32.784541,32.784541,32.784541,32.784540,32.784540,32.784540,32.784540,32.784539,32.784539,
   ************* Simulation Error Summary *************
   ** Warning ** The following Report Variables were requested but not generated -- check.rdd file
   **   ~~~   ** Either the IDF did not contain these elements, the variable name is misspelled,
   **   ~~~   ** or the requested variable is an advanced output which requires Output : Diagnostics, DisplayAdvancedReportVariables;
   ************* Key=*, VarName=BASEBOARD TOTAL HEATING ENERGY, Frequency=
   ************* Key=*, VarName=WATER HEATER NATURALGAS ENERGY, Frequency=
   ************* Key=*, VarName=COOLING COIL TOTAL HEATING ENERGY, Frequency=
   ************* There are 34 unused schedules in input.
   ************* There are 388 unused week schedules in input.
   ************* There are 397 unused day schedules in input.
   ************* Use Output:Diagnostics,DisplayUnusedSchedules; to see them.
   *************
   ************* ===== Recurring Error Summary =====
   ************* The following recurring error messages occurred.
   *************
   *************  ** Warning ** "TOTAL HOT WATER LOAD" - Target water temperature should be less than or equal to the hot water temperature error continues...
   *************  **   ~~~   **   This error occurred 90325 total times;
   *************  **   ~~~   **   during Warmup 0 times;
   *************  **   ~~~   **   during Sizing 0 times.
   *************  **   ~~~   **   Max=9.697378  Min=6.303702E-003
   *************
   *************  ** Warning ** SimHVAC: Exceeding Maximum iterations for all HVAC loops, during ANNUAL continues
   *************  **   ~~~   **   This error occurred 3 total times;
   *************  **   ~~~   **   during Warmup 0 times;
   *************  **   ~~~   **   during Sizing 0 times.
   *************
   *************
   ************* ===== Final Error Summary =====
   ************* The following error categories occurred.  Consider correcting or noting.
   ************* Nominally Unused Constructions
   ************* ..The nominally unused constructions warning is provided to alert you to potential conditions that can cause
   ************* ..extra time during simulation. Each construction is calculated by the algorithm indicated in the HeatBalanceAlgorithm
   ************* ..object. You may remove the constructions indicated (when you use the DisplayExtraWarnings option).
   *************
   ************* EnergyPlus Warmup Error Summary. During Warmup: 1 Warning; 0 Severe Errors.
   ************* EnergyPlus Sizing Error Summary. During Sizing: 4 Warning; 0 Severe Errors.
   ************* EnergyPlus Completed Successfully-- 90359 Warning; 0 Severe Errors; Elapsed Time=00hr 01min 27.17sec
