Program Version,EnergyPlus, Version 22.2.0-c249759bad, YMD=2023.09.01 20:01,
   ************* Beginning Zone Sizing Calculations
   ** Warning ** ProcessScheduleInput: Schedule:Constant="ALWAYS ON DISCRETE", Schedule Type Limits Name="ONOFF" not found -- will not be validated
   ** Warning ** Foundation:Kiva="KIVA FOUNDATION", no Interior Horizontal Insulation Material Name defined
   **   ~~~   ** Interior Horizontal Insulation Depth will not be used.
   ** Warning ** CheckUsedConstructions: There are 15 nominally unused constructions in input.
   **   ~~~   ** Each Unused construction is shown.
   ************* Construction=INTERIOR FLOOR
   ************* Construction=INTERIOR WINDOW
   ************* Construction=EXTERIOR DOOR
   ************* Construction=INTERIOR DOOR
   ************* Construction=GABLE CONSTRUCTION
   ************* Construction=CRAWL_FLOOR
   ************* Construction=INSULATED PIPE
   ************* Construction=PLAIN PIPE
   ************* Construction=TDD PIPE
   ************* Construction=TDD DOME
   ************* Construction=TDD DIFFUSER
   ************* Construction=CRAWL WALL
   ************* Construction=CEILING-FLOOR-LAYER
   ************* Construction=SLAB CONSTRUCTION W FULL R10 INSULATION
   ************* Construction=SLAB CONSTRUCTION W FULL R5 INSULATION
   ** Warning ** GetDXCoils: Coil:Heating:DX:SingleSpeed="DX_HEATING_COIL" curve values
   **   ~~~   ** ... Defrost Energy Input Ratio Function of Temperature Curve Name = DEFROSTEIR output is not equal to 1.0 (+ or - 10%) at rated conditions.
   **   ~~~   ** ... Curve output at rated conditions = 0.152
   ************* Beginning System Sizing Calculations
   ************* Beginning Plant Sizing Calculations
   ** Warning ** Coil:WaterHeating:AirToWaterHeatPump:Wrapped "HEAT PUMP WATER HEATER EVAPORATOR": Rated air volume flow rate per watt of rated total water heating capacity is out of range
   **   ~~~   ** Min Rated Vol Flow Per Watt=[4.027E-005], Rated Vol Flow Per Watt=[1.510E-004], Max Rated Vol Flow Per Watt=[8.056E-005]. See Input-Output Reference Manual for valid range.
   ************* SizeFan: : Potential issue with equipment sizing for Fan:OnOff HEAT PUMP WATER HEATER FAN
   **   ~~~   ** User-Specified Maximum Flow Rate [m3/s] = 0.22653
   **   ~~~   ** differs from Design Size Maximum Flow Rate [m3/s] = 7.55250E-002
   **   ~~~   ** This may, or may not, indicate mismatched component sizes.
   **   ~~~   ** Verify that the value entered is intended and is consistent with other components.
   ** Warning ** Water heater = WATER HEATER TANK:  Recovery Efficiency and Energy Factor could not be calculated during the test for standard ratings
   **   ~~~   ** Setpoint was never recovered and/or heater never turned on
   ** Warning ** Check input. Pump nominal power or motor efficiency is set to 0, for pump=MAINS PRESSURE
   ** Warning ** Output:Meter: invalid Key Name="ELECTRIC_RANGE:INTERIOREQUIPMENT:ELECTRICITY" - not found.
   ** Warning ** Output:Meter: invalid Key Name="ELECTRIC_DRYER:INTERIOREQUIPMENT:ELECTRICITY" - not found.
   ** Warning ** Output:Meter: invalid Key Name="HEATRECOVERY:ELECTRICITY" - not found.
   ** Warning ** Output:Meter: invalid Key Name="HEATING:NATURALGAS" - not found.
   ** Warning ** Output:Meter: invalid Key Name="WATERSYSTEMS:NATURALGAS" - not found.
   ** Warning ** Output:Meter: invalid Key Name="PROPANE:FACILITY" - not found.
   ** Warning ** Output:Meter: invalid Key Name="HEATING:PROPANE" - not found.
   ************* Testing Individual Branch Integrity
   ************* All Branches passed integrity testing
   ************* Testing Individual Supply Air Path Integrity
   ************* All Supply Air Paths passed integrity testing
   ************* Testing Individual Return Air Path Integrity
   ************* All Return Air Paths passed integrity testing
   ************* No node connection errors were found.
   ************* Beginning Simulation
   ** Warning ** AirflowNetwork::Solver::validate_distribution: Heat pump water heater is simulated along with an AirflowNetwork but is not included in the AirflowNetwork.
   ** Warning ** CalcEquipmentFlowRates: "TOTAL HOT WATER LOAD" - Target water temperature is greater than the hot water temperature by (3.79 C)
   **   ~~~   **  Environment=EXTREME_WINTER, at Simulation time=01/08 07:00 - 07:15
   **   ~~~   ** ...target water temperature     = 53.33 C
   **   ~~~   ** ...hot water temperature        = 49.55 C
   **   ~~~   ** ...Target water temperature should be less than or equal to the hot water temperature. Verify temperature setpoints and schedules.
   ** Warning ** SimHVAC: Maximum iterations (20) exceeded for all HVAC loops, at ANNUAL, 01/05 12:45 - 13:00
   **   ~~~   ** The solution for one or more of the Air Loop HVAC systems did not appear to converge
   **   ~~~   ** Air System Named = CENTRAL SYSTEM did not converge for mass flow rate
   **   ~~~   ** Check values should be zero. Most Recent values listed first.
   **   ~~~   ** Demand-to-Supply interface mass flow rate check value iteration history trace: 7.543587E-002,7.543587E-002,7.543587E-002,7.543587E-002,7.543587E-002,7.543587E-002,7.543587E-002,7.543587E-002,7.543587E-002,7.543587E-002,
   **   ~~~   ** Supply-to-demand interface deck 1 mass flow rate check value iteration history trace: 7.543587E-002,7.543587E-002,7.543587E-002,7.543587E-002,7.543587E-002,7.543587E-002,7.543587E-002,7.543587E-002,7.543587E-002,7.543587E-002,
   **   ~~~   ** Air System Named = CENTRAL SYSTEM did not converge for energy
   **   ~~~   ** Check values should be zero. Most Recent values listed first.
   **   ~~~   ** Demand-to-Supply interface energy check value iteration history trace: 1496.433169,1496.433168,1496.433168,1496.433167,1496.433167,1496.433167,1496.433166,1496.433166,1496.433166,1496.433165,
   **   ~~~   ** Supply-to-demand interface deck 1 energy check value iteration history trace: 2357.135961,2357.135961,2357.135960,2357.135960,2357.135959,2357.135958,2357.135958,2357.135957,2357.135957,2357.135956,
   ** Warning ** SimHVAC: Maximum iterations (20) exceeded for all HVAC loops, at ANNUAL, 01/10 15:35 - 15:40
   **   ~~~   ** The solution for one or more of the Air Loop HVAC systems did not appear to converge
   **   ~~~   ** Air System Named = CENTRAL SYSTEM did not converge for mass flow rate
   **   ~~~   ** Check values should be zero. Most Recent values listed first.
   **   ~~~   ** Demand-to-Supply interface mass flow rate check value iteration history trace: 2.670590E-002,2.670590E-002,2.670590E-002,2.670590E-002,2.670590E-002,2.670590E-002,2.670590E-002,2.670590E-002,2.670590E-002,2.670590E-002,
   **   ~~~   ** Supply-to-demand interface deck 1 mass flow rate check value iteration history trace: 2.670590E-002,2.670590E-002,2.670590E-002,2.670590E-002,2.670590E-002,2.670590E-002,2.670590E-002,2.670590E-002,2.670590E-002,2.670590E-002,
   **   ~~~   ** Air System Named = CENTRAL SYSTEM did not converge for energy
   **   ~~~   ** Check values should be zero. Most Recent values listed first.
   **   ~~~   ** Demand-to-Supply interface energy check value iteration history trace: 528.757367,528.757367,528.757367,528.757366,528.757366,528.757366,528.757366,528.757366,528.757366,528.757366,
   **   ~~~   ** Supply-to-demand interface deck 1 energy check value iteration history trace: 767.076189,767.076189,767.076189,767.076189,767.076189,767.076189,767.076189,767.076189,767.076189,767.076189,
   ** Warning ** Temperature out of range [-100. to 200.] (PsyPsatFnTemp)
   **   ~~~   **  Routine=PsyTwbFnTdbWPb, Environment=ANNUAL, at Simulation time=01/19 05:30 - 05:35
   **   ~~~   **  Input Temperature=-127.09
   ** Warning ** SimHVAC: Maximum iterations (20) exceeded for all HVAC loops, at ANNUAL, 02/01 21:08 - 21:15
   **   ~~~   ** The solution for one or more of the Air Loop HVAC systems did not appear to converge
   **   ~~~   ** Air System Named = CENTRAL SYSTEM did not converge for mass flow rate
   **   ~~~   ** Check values should be zero. Most Recent values listed first.
   **   ~~~   ** Demand-to-Supply interface mass flow rate check value iteration history trace: 9.945150E-002,9.945150E-002,9.945150E-002,9.945150E-002,9.945150E-002,9.945150E-002,9.945150E-002,9.945150E-002,9.945150E-002,9.945150E-002,
   **   ~~~   ** Supply-to-demand interface deck 1 mass flow rate check value iteration history trace: 9.945150E-002,9.945150E-002,9.945150E-002,9.945150E-002,9.945150E-002,9.945150E-002,9.945150E-002,9.945150E-002,9.945150E-002,9.945150E-002,
   **   ~~~   ** Air System Named = CENTRAL SYSTEM did not converge for energy
   **   ~~~   ** Check values should be zero. Most Recent values listed first.
   **   ~~~   ** Demand-to-Supply interface energy check value iteration history trace: 1957.846940,1957.846940,1957.846940,1957.846940,1957.846940,1957.846940,1957.846940,1957.846939,1957.846939,1957.846939,
   **   ~~~   ** Supply-to-demand interface deck 1 energy check value iteration history trace: 2913.448775,2913.448775,2913.448775,2913.448775,2913.448775,2913.448775,2913.448774,2913.448774,2913.448774,2913.448774,
   ** Warning ** SimHVAC: Maximum iterations (20) exceeded for all HVAC loops, at ANNUAL, 02/08 23:40 - 23:45
   **   ~~~   ** The solution for one or more of the Air Loop HVAC systems did not appear to converge
   **   ~~~   ** Air System Named = CENTRAL SYSTEM did not converge for mass flow rate
   **   ~~~   ** Check values should be zero. Most Recent values listed first.
   **   ~~~   ** Demand-to-Supply interface mass flow rate check value iteration history trace: 8.610338E-002,8.610338E-002,8.610338E-002,8.610338E-002,8.610338E-002,8.610338E-002,8.610338E-002,8.610338E-002,8.610338E-002,8.610338E-002,
   **   ~~~   ** Supply-to-demand interface deck 1 mass flow rate check value iteration history trace: 8.610338E-002,8.610338E-002,8.610338E-002,8.610338E-002,8.610338E-002,8.610338E-002,8.610338E-002,8.610338E-002,8.610338E-002,8.610338E-002,
   **   ~~~   ** Air System Named = CENTRAL SYSTEM did not converge for energy
   **   ~~~   ** Check values should be zero. Most Recent values listed first.
   **   ~~~   ** Demand-to-Supply interface energy check value iteration history trace: 1605.886951,1605.886951,1605.886951,1605.886951,1605.886951,1605.886951,1605.886951,1605.886951,1605.886951,1605.886951,
   **   ~~~   ** Supply-to-demand interface deck 1 energy check value iteration history trace: 2542.133629,2542.133629,2542.133629,2542.133629,2542.133629,2542.133629,2542.133629,2542.133628,2542.133628,2542.133628,
   ** Warning ** SimHVAC: Maximum iterations (20) exceeded for all HVAC loops, at ANNUAL, 02/14 11:56 - 12:00
   **   ~~~   ** The solution for one or more of the Air Loop HVAC systems did not appear to converge
   **   ~~~   ** Air System Named = CENTRAL SYSTEM did not converge for mass flow rate
   **   ~~~   ** Check values should be zero. Most Recent values listed first.
   **   ~~~   ** Demand-to-Supply interface mass flow rate check value iteration history trace: 7.992409E-002,7.992409E-002,7.992409E-002,7.992409E-002,7.992409E-002,7.992409E-002,7.992409E-002,7.992409E-002,7.992409E-002,7.992409E-002,
   **   ~~~   ** Supply-to-demand interface deck 1 mass flow rate check value iteration history trace: 7.992409E-002,7.992409E-002,7.992409E-002,7.992409E-002,7.992409E-002,7.992409E-002,7.992409E-002,7.992409E-002,7.992409E-002,7.992409E-002,
   **   ~~~   ** Air System Named = CENTRAL SYSTEM did not converge for energy
   **   ~~~   ** Check values should be zero. Most Recent values listed first.
   **   ~~~   ** Demand-to-Supply interface energy check value iteration history trace: 1580.674437,1580.674436,1580.674436,1580.674436,1580.674436,1580.674436,1580.674436,1580.674436,1580.674436,1580.674436,
   **   ~~~   ** Supply-to-demand interface deck 1 energy check value iteration history trace: 2690.623964,2690.623964,2690.623964,2690.623964,2690.623964,2690.623964,2690.623964,2690.623964,2690.623964,2690.623963,
   ** Warning ** SimHVAC: Maximum iterations (20) exceeded for all HVAC loops, at ANNUAL, 02/15 20:45 - 21:00
   **   ~~~   ** The solution for one or more of the Air Loop HVAC systems did not appear to converge
   **   ~~~   ** Air System Named = CENTRAL SYSTEM did not converge for mass flow rate
   **   ~~~   ** Check values should be zero. Most Recent values listed first.
   **   ~~~   ** Demand-to-Supply interface mass flow rate check value iteration history trace: 9.185898E-002,9.185898E-002,9.185898E-002,9.185898E-002,9.185898E-002,9.185898E-002,9.185898E-002,9.185898E-002,9.185898E-002,9.185898E-002,
   **   ~~~   ** Supply-to-demand interface deck 1 mass flow rate check value iteration history trace: 9.185898E-002,9.185898E-002,9.185898E-002,9.185898E-002,9.185898E-002,9.185898E-002,9.185898E-002,9.185898E-002,9.185898E-002,9.185898E-002,
   **   ~~~   ** Air System Named = CENTRAL SYSTEM did not converge for energy
   **   ~~~   ** Check values should be zero. Most Recent values listed first.
   **   ~~~   ** Demand-to-Supply interface energy check value iteration history trace: 1802.127562,1802.127562,1802.127562,1802.127561,1802.127561,1802.127561,1802.127561,1802.127561,1802.127561,1802.127561,
   **   ~~~   ** Supply-to-demand interface deck 1 energy check value iteration history trace: 2757.520220,2757.520220,2757.520219,2757.520219,2757.520219,2757.520219,2757.520219,2757.520218,2757.520218,2757.520218,
   ** Warning ** SimHVAC: Maximum iterations (20) exceeded for all HVAC loops, at ANNUAL, 02/26 21:23 - 21:30
   **   ~~~   ** The solution for one or more of the Air Loop HVAC systems did not appear to converge
   **   ~~~   ** Air System Named = CENTRAL SYSTEM did not converge for mass flow rate
   **   ~~~   ** Check values should be zero. Most Recent values listed first.
   **   ~~~   ** Demand-to-Supply interface mass flow rate check value iteration history trace: 9.582702E-002,9.582702E-002,9.582702E-002,9.582702E-002,9.582702E-002,9.582702E-002,9.582702E-002,9.582702E-002,9.582702E-002,9.582702E-002,
   **   ~~~   ** Supply-to-demand interface deck 1 mass flow rate check value iteration history trace: 9.582702E-002,9.582702E-002,9.582702E-002,9.582702E-002,9.582702E-002,9.582702E-002,9.582702E-002,9.582702E-002,9.582702E-002,9.582702E-002,
   **   ~~~   ** Air System Named = CENTRAL SYSTEM did not converge for energy
   **   ~~~   ** Check values should be zero. Most Recent values listed first.
   **   ~~~   ** Demand-to-Supply interface energy check value iteration history trace: 1897.842862,1897.842862,1897.842862,1897.842862,1897.842862,1897.842862,1897.842862,1897.842862,1897.842862,1897.842862,
   **   ~~~   ** Supply-to-demand interface deck 1 energy check value iteration history trace: 2961.741466,2961.741466,2961.741466,2961.741466,2961.741465,2961.741465,2961.741465,2961.741465,2961.741465,2961.741465,
   ** Warning ** SimHVAC: Maximum iterations (20) exceeded for all HVAC loops, at ANNUAL, 02/26 22:30 - 22:45
   **   ~~~   ** The solution for one or more of the Air Loop HVAC systems did not appear to converge
   **   ~~~   ** Air System Named = CENTRAL SYSTEM did not converge for mass flow rate
   **   ~~~   ** Check values should be zero. Most Recent values listed first.
   **   ~~~   ** Demand-to-Supply interface mass flow rate check value iteration history trace: 8.797685E-002,8.797685E-002,8.797685E-002,8.797685E-002,8.797685E-002,8.797685E-002,8.797685E-002,8.797685E-002,8.797685E-002,8.797685E-002,
   **   ~~~   ** Supply-to-demand interface deck 1 mass flow rate check value iteration history trace: 8.797685E-002,8.797685E-002,8.797685E-002,8.797685E-002,8.797685E-002,8.797685E-002,8.797685E-002,8.797685E-002,8.797685E-002,8.797685E-002,
   **   ~~~   ** Air System Named = CENTRAL SYSTEM did not converge for energy
   **   ~~~   ** Check values should be zero. Most Recent values listed first.
   **   ~~~   ** Demand-to-Supply interface energy check value iteration history trace: 1644.451215,1644.451215,1644.451215,1644.451215,1644.451215,1644.451215,1644.451215,1644.451215,1644.451215,1644.451215,
   **   ~~~   ** Supply-to-demand interface deck 1 energy check value iteration history trace: 2575.612655,2575.612654,2575.612654,2575.612654,2575.612654,2575.612654,2575.612654,2575.612654,2575.612653,2575.612653,
   ** Warning ** SimHVAC: Maximum iterations (20) exceeded for all HVAC loops, at ANNUAL, 03/03 19:25 - 19:30
   **   ~~~   ** The solution for one or more of the Air Loop HVAC systems did not appear to converge
   **   ~~~   ** Air System Named = CENTRAL SYSTEM did not converge for mass flow rate
   **   ~~~   ** Check values should be zero. Most Recent values listed first.
   **   ~~~   ** Demand-to-Supply interface mass flow rate check value iteration history trace: 0.107623,0.107623,0.107623,0.107623,0.107623,0.107623,0.107623,0.107623,0.107623,0.107623,
   **   ~~~   ** Supply-to-demand interface deck 1 mass flow rate check value iteration history trace: 0.107623,0.107623,0.107623,0.107623,0.107623,0.107623,0.107623,0.107623,0.107623,0.107623,
   **   ~~~   ** Air System Named = CENTRAL SYSTEM did not converge for energy
   **   ~~~   ** Check values should be zero. Most Recent values listed first.
   **   ~~~   ** Demand-to-Supply interface energy check value iteration history trace: 2113.012872,2113.012872,2113.012872,2113.012872,2113.012872,2113.012871,2113.012871,2113.012871,2113.012871,2113.012871,
   **   ~~~   ** Supply-to-demand interface deck 1 energy check value iteration history trace: 3241.854607,3241.854607,3241.854607,3241.854606,3241.854606,3241.854606,3241.854606,3241.854606,3241.854605,3241.854605,
   ** Warning ** SimHVAC: Maximum iterations (20) exceeded for all HVAC loops, at ANNUAL, 03/03 20:45 - 21:00
   **   ~~~   ** The solution for one or more of the Air Loop HVAC systems did not appear to converge
   **   ~~~   ** Air System Named = CENTRAL SYSTEM did not converge for mass flow rate
   **   ~~~   ** Check values should be zero. Most Recent values listed first.
   **   ~~~   ** Demand-to-Supply interface mass flow rate check value iteration history trace: 9.355789E-002,9.355789E-002,9.355789E-002,9.355789E-002,9.355789E-002,9.355789E-002,9.355789E-002,9.355789E-002,9.355789E-002,9.355789E-002,
   **   ~~~   ** Supply-to-demand interface deck 1 mass flow rate check value iteration history trace: 9.355789E-002,9.355789E-002,9.355789E-002,9.355789E-002,9.355789E-002,9.355789E-002,9.355789E-002,9.355789E-002,9.355789E-002,9.355789E-002,
   **   ~~~   ** Air System Named = CENTRAL SYSTEM did not converge for energy
   **   ~~~   ** Check values should be zero. Most Recent values listed first.
   **   ~~~   ** Demand-to-Supply interface energy check value iteration history trace: 1850.862155,1850.862154,1850.862154,1850.862154,1850.862154,1850.862154,1850.862154,1850.862154,1850.862154,1850.862153,
   **   ~~~   ** Supply-to-demand interface deck 1 energy check value iteration history trace: 2831.431735,2831.431735,2831.431735,2831.431735,2831.431734,2831.431734,2831.431734,2831.431734,2831.431734,2831.431733,
   ** Warning ** SimHVAC: Maximum iterations (20) exceeded for all HVAC loops, at ANNUAL, 03/06 21:45 - 21:52
   **   ~~~   ** The solution for one or more of the Air Loop HVAC systems did not appear to converge
   **   ~~~   ** Air System Named = CENTRAL SYSTEM did not converge for mass flow rate
   **   ~~~   ** Check values should be zero. Most Recent values listed first.
   **   ~~~   ** Demand-to-Supply interface mass flow rate check value iteration history trace: 5.844847E-002,5.844847E-002,5.844847E-002,5.844847E-002,5.844847E-002,5.844847E-002,5.844847E-002,5.844847E-002,5.844847E-002,5.844847E-002,
   **   ~~~   ** Supply-to-demand interface deck 1 mass flow rate check value iteration history trace: 5.844847E-002,5.844847E-002,5.844847E-002,5.844847E-002,5.844847E-002,5.844847E-002,5.844847E-002,5.844847E-002,5.844847E-002,5.844847E-002,
   **   ~~~   ** Air System Named = CENTRAL SYSTEM did not converge for energy
   **   ~~~   ** Check values should be zero. Most Recent values listed first.
   **   ~~~   ** Demand-to-Supply interface energy check value iteration history trace: 1153.858794,1153.858794,1153.858794,1153.858794,1153.858794,1153.858794,1153.858793,1153.858793,1153.858793,1153.858793,
   **   ~~~   ** Supply-to-demand interface deck 1 energy check value iteration history trace: 2029.104525,2029.104525,2029.104525,2029.104525,2029.104525,2029.104525,2029.104525,2029.104525,2029.104525,2029.104524,
   ** Warning ** SimHVAC: Maximum iterations (20) exceeded for all HVAC loops, at ANNUAL, 03/12 08:45 - 09:00
   **   ~~~   ** The solution for one or more of the Air Loop HVAC systems did not appear to converge
   **   ~~~   ** Air System Named = CENTRAL SYSTEM did not converge for mass flow rate
   **   ~~~   ** Check values should be zero. Most Recent values listed first.
   **   ~~~   ** Demand-to-Supply interface mass flow rate check value iteration history trace: 7.812615E-002,7.812615E-002,7.812615E-002,7.812615E-002,7.812615E-002,7.812615E-002,7.812615E-002,7.812615E-002,7.812615E-002,7.812615E-002,
   **   ~~~   ** Supply-to-demand interface deck 1 mass flow rate check value iteration history trace: 7.812615E-002,7.812615E-002,7.812615E-002,7.812615E-002,7.812615E-002,7.812615E-002,7.812615E-002,7.812615E-002,7.812615E-002,7.812615E-002,
   **   ~~~   ** Air System Named = CENTRAL SYSTEM did not converge for energy
   **   ~~~   ** Check values should be zero. Most Recent values listed first.
   **   ~~~   ** Demand-to-Supply interface energy check value iteration history trace: 1548.057205,1548.057205,1548.057205,1548.057205,1548.057205,1548.057205,1548.057205,1548.057205,1548.057204,1548.057204,
   **   ~~~   ** Supply-to-demand interface deck 1 energy check value iteration history trace: 2679.381804,2679.381804,2679.381804,2679.381804,2679.381804,2679.381804,2679.381804,2679.381803,2679.381803,2679.381803,
   ** Warning ** SimHVAC: Maximum iterations (20) exceeded for all HVAC loops, at ANNUAL, 03/14 22:30 - 22:38
   **   ~~~   ** The solution for one or more of the Air Loop HVAC systems did not appear to converge
   **   ~~~   ** Air System Named = CENTRAL SYSTEM did not converge for mass flow rate
   **   ~~~   ** Check values should be zero. Most Recent values listed first.
   **   ~~~   ** Demand-to-Supply interface mass flow rate check value iteration history trace: 7.579677E-002,7.579677E-002,7.579677E-002,7.579677E-002,7.579677E-002,7.579677E-002,7.579677E-002,7.579677E-002,7.579677E-002,7.579677E-002,
   **   ~~~   ** Supply-to-demand interface deck 1 mass flow rate check value iteration history trace: 7.579677E-002,7.579677E-002,7.579677E-002,7.579677E-002,7.579677E-002,7.579677E-002,7.579677E-002,7.579677E-002,7.579677E-002,7.579677E-002,
   **   ~~~   ** Air System Named = CENTRAL SYSTEM did not converge for energy
   **   ~~~   ** Check values should be zero. Most Recent values listed first.
   **   ~~~   ** Demand-to-Supply interface energy check value iteration history trace: 1418.675996,1418.675996,1418.675996,1418.675996,1418.675996,1418.675995,1418.675995,1418.675995,1418.675995,1418.675995,
   **   ~~~   ** Supply-to-demand interface deck 1 energy check value iteration history trace: 2253.722633,2253.722633,2253.722633,2253.722633,2253.722633,2253.722633,2253.722633,2253.722632,2253.722632,2253.722632,
   ** Warning ** SimHVAC: Maximum iterations (20) exceeded for all HVAC loops, at ANNUAL, 03/23 17:15 - 17:30
   **   ~~~   ** The solution for one or more of the Air Loop HVAC systems did not appear to converge
   **   ~~~   ** Air System Named = CENTRAL SYSTEM did not converge for mass flow rate
   **   ~~~   ** Check values should be zero. Most Recent values listed first.
   **   ~~~   ** Demand-to-Supply interface mass flow rate check value iteration history trace: 8.574862E-002,8.574862E-002,8.574862E-002,8.574862E-002,8.574862E-002,8.574862E-002,8.574862E-002,8.574862E-002,8.574862E-002,8.574862E-002,
   **   ~~~   ** Supply-to-demand interface deck 1 mass flow rate check value iteration history trace: 8.574862E-002,8.574862E-002,8.574862E-002,8.574862E-002,8.574862E-002,8.574862E-002,8.574862E-002,8.574862E-002,8.574862E-002,8.574862E-002,
   **   ~~~   ** Air System Named = CENTRAL SYSTEM did not converge for energy
   **   ~~~   ** Check values should be zero. Most Recent values listed first.
   **   ~~~   ** Demand-to-Supply interface energy check value iteration history trace: 1699.695035,1699.695035,1699.695035,1699.695035,1699.695035,1699.695035,1699.695035,1699.695034,1699.695034,1699.695034,
   **   ~~~   ** Supply-to-demand interface deck 1 energy check value iteration history trace: 2553.244757,2553.244757,2553.244757,2553.244757,2553.244757,2553.244756,2553.244756,2553.244756,2553.244756,2553.244756,
   ************* Simulation Error Summary *************
   ** Warning ** The following Report Variables were requested but not generated -- check.rdd file
   **   ~~~   ** Either the IDF did not contain these elements, the variable name is misspelled,
   **   ~~~   ** or the requested variable is an advanced output which requires Output : Diagnostics, DisplayAdvancedReportVariables;
   ************* Key=*, VarName=BASEBOARD TOTAL HEATING ENERGY, Frequency=
   ************* Key=*, VarName=WATER HEATER NATURALGAS ENERGY, Frequency=
   ************* Key=*, VarName=COOLING COIL TOTAL HEATING ENERGY, Frequency=
   ************* There are 34 unused schedules in input.
   ************* There are 388 unused week schedules in input.
   ************* There are 396 unused day schedules in input.
   ************* Use Output:Diagnostics,DisplayUnusedSchedules; to see them.
   *************
   ************* ===== Recurring Error Summary =====
   ************* The following recurring error messages occurred.
   *************
   *************  ** Warning ** "TOTAL HOT WATER LOAD" - Target water temperature should be less than or equal to the hot water temperature error continues...
   *************  **   ~~~   **   This error occurred 152225 total times;
   *************  **   ~~~   **   during Warmup 0 times;
   *************  **   ~~~   **   during Sizing 0 times.
   *************  **   ~~~   **   Max=12.206049  Min=9.199073E-004
   *************
   *************  ** Warning ** Temperature out of range [-100. to 200.] (PsyPsatFnTemp)
   *************  **   ~~~   **   This error occurred 2 total times;
   *************  **   ~~~   **   during Warmup 0 times;
   *************  **   ~~~   **   during Sizing 0 times.
   *************  **   ~~~   **   Max=-127.095985 C  Min=-238.311241 C
   *************
   *************  ** Warning ** SimHVAC: Exceeding Maximum iterations for all HVAC loops, during ANNUAL continues
   *************  **   ~~~   **   This error occurred 18 total times;
   *************  **   ~~~   **   during Warmup 0 times;
   *************  **   ~~~   **   during Sizing 0 times.
   *************
   *************
   ************* ===== Final Error Summary =====
   ************* The following error categories occurred.  Consider correcting or noting.
   ************* Nominally Unused Constructions
   ************* ..The nominally unused constructions warning is provided to alert you to potential conditions that can cause
   ************* ..extra time during simulation. Each construction is calculated by the algorithm indicated in the HeatBalanceAlgorithm
   ************* ..object. You may remove the constructions indicated (when you use the DisplayExtraWarnings option).
   *************
   ************* EnergyPlus Warmup Error Summary. During Warmup: 1 Warning; 0 Severe Errors.
   ************* EnergyPlus Sizing Error Summary. During Sizing: 4 Warning; 0 Severe Errors.
   ************* EnergyPlus Completed Successfully-- 152276 Warning; 0 Severe Errors; Elapsed Time=00hr 01min 34.15sec
