Program Version,EnergyPlus, Version 22.2.0-c249759bad, YMD=2023.09.01 19:04,
   ************* Beginning Zone Sizing Calculations
   ** Warning ** ProcessScheduleInput: Schedule:Constant="ALWAYS ON DISCRETE", Schedule Type Limits Name="ONOFF" not found -- will not be validated
   ** Warning ** Foundation:Kiva="KIVA FOUNDATION", no Interior Horizontal Insulation Material Name defined
   **   ~~~   ** Interior Horizontal Insulation Depth will not be used.
   ** Warning ** CheckUsedConstructions: There are 15 nominally unused constructions in input.
   **   ~~~   ** Each Unused construction is shown.
   ************* Construction=INTERIOR FLOOR
   ************* Construction=INTERIOR WINDOW
   ************* Construction=EXTERIOR DOOR
   ************* Construction=INTERIOR DOOR
   ************* Construction=GABLE CONSTRUCTION
   ************* Construction=CRAWL_FLOOR
   ************* Construction=INSULATED PIPE
   ************* Construction=PLAIN PIPE
   ************* Construction=TDD PIPE
   ************* Construction=TDD DOME
   ************* Construction=TDD DIFFUSER
   ************* Construction=CRAWL WALL
   ************* Construction=CEILING-FLOOR-LAYER
   ************* Construction=SLAB CONSTRUCTION W FULL R10 INSULATION
   ************* Construction=SLAB CONSTRUCTION W FULL R5 INSULATION
   ** Warning ** GetDXCoils: Coil:Heating:DX:SingleSpeed="DX_HEATING_COIL" curve values
   **   ~~~   ** ... Defrost Energy Input Ratio Function of Temperature Curve Name = DEFROSTEIR output is not equal to 1.0 (+ or - 10%) at rated conditions.
   **   ~~~   ** ... Curve output at rated conditions = 0.152
   ************* Beginning System Sizing Calculations
   ************* Beginning Plant Sizing Calculations
   ** Warning ** SizeDXCoil Coil:Cooling:DX:SingleSpeed DX_COOLING_COIL
   **   ~~~   ** ...Gross Rated Total Cooling Capacity [W] will be limited by the maximum rated volume flow per rated total capacity ratio.
   **   ~~~   ** ...DX coil volume flow rate ( m3/s ) = 0.371680
   **   ~~~   ** ...Requested capacity ( W ) = 5566.789
   **   ~~~   ** ...Requested flow/capacity ratio ( m3/s/W ) = 6.676E-005
   **   ~~~   ** ...Maximum flow/capacity ratio ( m3/s/W ) = 6.041E-005
   **   ~~~   ** ...Adjusted capacity ( W ) = 6152.639
   ** Warning ** Coil:WaterHeating:AirToWaterHeatPump:Wrapped "HEAT PUMP WATER HEATER EVAPORATOR": Rated air volume flow rate per watt of rated total water heating capacity is out of range
   **   ~~~   ** Min Rated Vol Flow Per Watt=[4.027E-005], Rated Vol Flow Per Watt=[1.510E-004], Max Rated Vol Flow Per Watt=[8.056E-005]. See Input-Output Reference Manual for valid range.
   ************* SizeFan: : Potential issue with equipment sizing for Fan:OnOff HEAT PUMP WATER HEATER FAN
   **   ~~~   ** User-Specified Maximum Flow Rate [m3/s] = 0.22653
   **   ~~~   ** differs from Design Size Maximum Flow Rate [m3/s] = 7.55250E-002
   **   ~~~   ** This may, or may not, indicate mismatched component sizes.
   **   ~~~   ** Verify that the value entered is intended and is consistent with other components.
   ** Warning ** Water heater = WATER HEATER TANK:  Recovery Efficiency and Energy Factor could not be calculated during the test for standard ratings
   **   ~~~   ** Setpoint was never recovered and/or heater never turned on
   ** Warning ** Check input. Pump nominal power or motor efficiency is set to 0, for pump=MAINS PRESSURE
   ** Warning ** Output:Meter: invalid Key Name="ELECTRIC_RANGE:INTERIOREQUIPMENT:ELECTRICITY" - not found.
   ** Warning ** Output:Meter: invalid Key Name="ELECTRIC_DRYER:INTERIOREQUIPMENT:ELECTRICITY" - not found.
   ** Warning ** Output:Meter: invalid Key Name="HEATRECOVERY:ELECTRICITY" - not found.
   ** Warning ** Output:Meter: invalid Key Name="HEATING:NATURALGAS" - not found.
   ** Warning ** Output:Meter: invalid Key Name="WATERSYSTEMS:NATURALGAS" - not found.
   ** Warning ** Output:Meter: invalid Key Name="PROPANE:FACILITY" - not found.
   ** Warning ** Output:Meter: invalid Key Name="HEATING:PROPANE" - not found.
   ************* Testing Individual Branch Integrity
   ************* All Branches passed integrity testing
   ************* Testing Individual Supply Air Path Integrity
   ************* All Supply Air Paths passed integrity testing
   ************* Testing Individual Return Air Path Integrity
   ************* All Return Air Paths passed integrity testing
   ************* No node connection errors were found.
   ************* Beginning Simulation
   ** Warning ** AirflowNetwork::Solver::validate_distribution: Heat pump water heater is simulated along with an AirflowNetwork but is not included in the AirflowNetwork.
   ** Warning ** CalcEquipmentFlowRates: "TOTAL HOT WATER LOAD" - Target water temperature is greater than the hot water temperature by (1.93 C)
   **   ~~~   **  Environment=EXTREME_WINTER, at Simulation time=01/20 03:45 - 04:00
   **   ~~~   ** ...target water temperature     = 53.33 C
   **   ~~~   ** ...hot water temperature        = 51.41 C
   **   ~~~   ** ...Target water temperature should be less than or equal to the hot water temperature. Verify temperature setpoints and schedules.
   ** Warning ** SimHVAC: Maximum iterations (20) exceeded for all HVAC loops, at ANNUAL, 02/11 16:30 - 16:45
   **   ~~~   ** The solution for one or more of the Air Loop HVAC systems did not appear to converge
   **   ~~~   ** Air System Named = CENTRAL SYSTEM did not converge for mass flow rate
   **   ~~~   ** Check values should be zero. Most Recent values listed first.
   **   ~~~   ** Demand-to-Supply interface mass flow rate check value iteration history trace: 2.890919E-002,2.890919E-002,2.890919E-002,2.890919E-002,2.890919E-002,2.890919E-002,2.890919E-002,2.890919E-002,2.890919E-002,2.890919E-002,
   **   ~~~   ** Supply-to-demand interface deck 1 mass flow rate check value iteration history trace: 2.890919E-002,2.890919E-002,2.890919E-002,2.890919E-002,2.890919E-002,2.890919E-002,2.890919E-002,2.890919E-002,2.890919E-002,2.890919E-002,
   **   ~~~   ** Air System Named = CENTRAL SYSTEM did not converge for energy
   **   ~~~   ** Check values should be zero. Most Recent values listed first.
   **   ~~~   ** Demand-to-Supply interface energy check value iteration history trace: 571.648536,571.648536,571.648536,571.648536,571.648536,571.648536,571.648536,571.648536,571.648535,571.648535,
   **   ~~~   ** Supply-to-demand interface deck 1 energy check value iteration history trace: 832.322963,832.322963,832.322963,832.322963,832.322962,832.322962,832.322962,832.322962,832.322962,832.322962,
   ** Warning ** SimHVAC: Maximum iterations (20) exceeded for all HVAC loops, at ANNUAL, 03/21 12:23 - 12:26
   **   ~~~   ** The solution for one or more of the Air Loop HVAC systems did not appear to converge
   **   ~~~   ** Air System Named = CENTRAL SYSTEM did not converge for mass flow rate
   **   ~~~   ** Check values should be zero. Most Recent values listed first.
   **   ~~~   ** Demand-to-Supply interface mass flow rate check value iteration history trace: 7.536697E-002,7.536697E-002,7.536697E-002,7.536697E-002,7.536697E-002,7.536697E-002,7.536697E-002,7.536697E-002,7.536697E-002,7.536697E-002,
   **   ~~~   ** Supply-to-demand interface deck 1 mass flow rate check value iteration history trace: 7.536697E-002,7.536697E-002,7.536697E-002,7.536697E-002,7.536697E-002,7.536697E-002,7.536697E-002,7.536697E-002,7.536697E-002,7.536697E-002,
   **   ~~~   ** Air System Named = CENTRAL SYSTEM did not converge for energy
   **   ~~~   ** Check values should be zero. Most Recent values listed first.
   **   ~~~   ** Demand-to-Supply interface energy check value iteration history trace: 1493.558343,1493.558343,1493.558342,1493.558342,1493.558342,1493.558342,1493.558342,1493.558342,1493.558342,1493.558342,
   **   ~~~   ** Supply-to-demand interface deck 1 energy check value iteration history trace: 2263.346144,2263.346144,2263.346144,2263.346144,2263.346144,2263.346143,2263.346143,2263.346143,2263.346143,2263.346143,
   ** Warning ** SimHVAC: Maximum iterations (20) exceeded for all HVAC loops, at ANNUAL, 04/17 01:15 - 01:30
   **   ~~~   ** The solution for one or more of the Air Loop HVAC systems did not appear to converge
   **   ~~~   ** Air System Named = CENTRAL SYSTEM did not converge for mass flow rate
   **   ~~~   ** Check values should be zero. Most Recent values listed first.
   **   ~~~   ** Demand-to-Supply interface mass flow rate check value iteration history trace: 7.017662E-002,7.017662E-002,7.017662E-002,7.017662E-002,7.017662E-002,7.017662E-002,7.017662E-002,7.017662E-002,7.017662E-002,7.017662E-002,
   **   ~~~   ** Supply-to-demand interface deck 1 mass flow rate check value iteration history trace: 7.017662E-002,7.017662E-002,7.017662E-002,7.017662E-002,7.017662E-002,7.017662E-002,7.017662E-002,7.017662E-002,7.017662E-002,7.017662E-002,
   **   ~~~   ** Air System Named = CENTRAL SYSTEM did not converge for energy
   **   ~~~   ** Check values should be zero. Most Recent values listed first.
   **   ~~~   ** Demand-to-Supply interface energy check value iteration history trace: 1308.315538,1308.315538,1308.315538,1308.315538,1308.315538,1308.315538,1308.315538,1308.315538,1308.315538,1308.315538,
   **   ~~~   ** Supply-to-demand interface deck 1 energy check value iteration history trace: 2018.422002,2018.422002,2018.422002,2018.422002,2018.422002,2018.422002,2018.422002,2018.422002,2018.422001,2018.422001,
   ** Warning ** SimHVAC: Maximum iterations (20) exceeded for all HVAC loops, at ANNUAL, 04/17 09:10 - 09:12
   **   ~~~   ** The solution for one or more of the Air Loop HVAC systems did not appear to converge
   **   ~~~   ** Air System Named = CENTRAL SYSTEM did not converge for mass flow rate
   **   ~~~   ** Check values should be zero. Most Recent values listed first.
   **   ~~~   ** Demand-to-Supply interface mass flow rate check value iteration history trace: 5.211476E-002,5.211476E-002,5.211476E-002,5.211476E-002,5.211476E-002,5.211476E-002,5.211476E-002,5.211476E-002,5.211476E-002,5.211476E-002,
   **   ~~~   ** Supply-to-demand interface deck 1 mass flow rate check value iteration history trace: 5.211476E-002,5.211476E-002,5.211476E-002,5.211476E-002,5.211476E-002,5.211476E-002,5.211476E-002,5.211476E-002,5.211476E-002,5.211476E-002,
   **   ~~~   ** Air System Named = CENTRAL SYSTEM did not converge for energy
   **   ~~~   ** Check values should be zero. Most Recent values listed first.
   **   ~~~   ** Demand-to-Supply interface energy check value iteration history trace: 1030.646727,1030.646727,1030.646727,1030.646727,1030.646727,1030.646727,1030.646727,1030.646727,1030.646727,1030.646727,
   **   ~~~   ** Supply-to-demand interface deck 1 energy check value iteration history trace: 1825.043888,1825.043888,1825.043888,1825.043888,1825.043888,1825.043888,1825.043888,1825.043888,1825.043888,1825.043888,
   ** Warning ** SimHVAC: Maximum iterations (20) exceeded for all HVAC loops, at ANNUAL, 05/04 06:45 - 07:00
   **   ~~~   ** The solution for one or more of the Air Loop HVAC systems did not appear to converge
   **   ~~~   ** Air System Named = CENTRAL SYSTEM did not converge for mass flow rate
   **   ~~~   ** Check values should be zero. Most Recent values listed first.
   **   ~~~   ** Demand-to-Supply interface mass flow rate check value iteration history trace: 5.749442E-002,5.749442E-002,5.749442E-002,5.749442E-002,5.749442E-002,5.749442E-002,5.749442E-002,5.749442E-002,5.749442E-002,5.749442E-002,
   **   ~~~   ** Supply-to-demand interface deck 1 mass flow rate check value iteration history trace: 5.749442E-002,5.749442E-002,5.749442E-002,5.749442E-002,5.749442E-002,5.749442E-002,5.749442E-002,5.749442E-002,5.749442E-002,5.749442E-002,
   **   ~~~   ** Air System Named = CENTRAL SYSTEM did not converge for energy
   **   ~~~   ** Check values should be zero. Most Recent values listed first.
   **   ~~~   ** Demand-to-Supply interface energy check value iteration history trace: 1138.986707,1138.986707,1138.986707,1138.986707,1138.986707,1138.986707,1138.986707,1138.986707,1138.986707,1138.986707,
   **   ~~~   ** Supply-to-demand interface deck 1 energy check value iteration history trace: 1971.509344,1971.509344,1971.509344,1971.509344,1971.509344,1971.509344,1971.509344,1971.509344,1971.509344,1971.509344,
   ** Warning ** SimHVAC: Maximum iterations (20) exceeded for all HVAC loops, at ANNUAL, 05/08 04:45 - 05:00
   **   ~~~   ** The solution for one or more of the Air Loop HVAC systems did not appear to converge
   **   ~~~   ** Air System Named = CENTRAL SYSTEM did not converge for mass flow rate
   **   ~~~   ** Check values should be zero. Most Recent values listed first.
   **   ~~~   ** Demand-to-Supply interface mass flow rate check value iteration history trace: 8.186619E-002,8.186619E-002,8.186619E-002,8.186619E-002,8.186619E-002,8.186619E-002,8.186619E-002,8.186619E-002,8.186619E-002,8.186619E-002,
   **   ~~~   ** Supply-to-demand interface deck 1 mass flow rate check value iteration history trace: 8.186619E-002,8.186619E-002,8.186619E-002,8.186619E-002,8.186619E-002,8.186619E-002,8.186619E-002,8.186619E-002,8.186619E-002,8.186619E-002,
   **   ~~~   ** Air System Named = CENTRAL SYSTEM did not converge for energy
   **   ~~~   ** Check values should be zero. Most Recent values listed first.
   **   ~~~   ** Demand-to-Supply interface energy check value iteration history trace: 1530.463876,1530.463876,1530.463876,1530.463876,1530.463876,1530.463875,1530.463875,1530.463875,1530.463875,1530.463875,
   **   ~~~   ** Supply-to-demand interface deck 1 energy check value iteration history trace: 2354.638078,2354.638078,2354.638078,2354.638078,2354.638078,2354.638077,2354.638077,2354.638077,2354.638077,2354.638077,
   ** Warning ** SimHVAC: Maximum iterations (20) exceeded for all HVAC loops, at ANNUAL, 09/14 17:24 - 17:27
   **   ~~~   ** The solution for one or more of the Air Loop HVAC systems did not appear to converge
   **   ~~~   ** Air System Named = CENTRAL SYSTEM did not converge for mass flow rate
   **   ~~~   ** Check values should be zero. Most Recent values listed first.
   **   ~~~   ** Demand-to-Supply interface mass flow rate check value iteration history trace: 0.344263,0.344263,0.344263,0.344263,0.344263,0.344263,0.344263,0.344263,0.344263,0.344263,
   **   ~~~   ** Supply-to-demand interface deck 1 mass flow rate check value iteration history trace: 0.344263,0.344263,0.344263,0.344263,0.344263,0.344263,0.344263,0.344263,0.344263,0.344263,
   **   ~~~   ** Air System Named = CENTRAL SYSTEM did not converge for energy
   **   ~~~   ** Check values should be zero. Most Recent values listed first.
   **   ~~~   ** Demand-to-Supply interface energy check value iteration history trace: 8262.768819,8262.768819,8262.768820,8262.768820,8262.768821,8262.768821,8262.768822,8262.768822,8262.768823,8262.768824,
   **   ~~~   ** Supply-to-demand interface deck 1 energy check value iteration history trace: 3486.116038,3486.116038,3486.116038,3486.116038,3486.116039,3486.116039,3486.116039,3486.116039,3486.116039,3486.116040,
   ** Warning ** SimHVAC: Maximum iterations (20) exceeded for all HVAC loops, at ANNUAL, 09/19 19:45 - 20:00
   **   ~~~   ** The solution for one or more of the Air Loop HVAC systems did not appear to converge
   **   ~~~   ** Air System Named = CENTRAL SYSTEM did not converge for mass flow rate
   **   ~~~   ** Check values should be zero. Most Recent values listed first.
   **   ~~~   ** Demand-to-Supply interface mass flow rate check value iteration history trace: 4.258625E-002,4.258625E-002,4.258625E-002,4.258625E-002,4.258625E-002,4.258625E-002,4.258625E-002,4.258625E-002,4.258625E-002,4.258625E-002,
   **   ~~~   ** Supply-to-demand interface deck 1 mass flow rate check value iteration history trace: 4.258625E-002,4.258625E-002,4.258625E-002,4.258625E-002,4.258625E-002,4.258625E-002,4.258625E-002,4.258625E-002,4.258625E-002,4.258625E-002,
   **   ~~~   ** Air System Named = CENTRAL SYSTEM did not converge for energy
   **   ~~~   ** Check values should be zero. Most Recent values listed first.
   **   ~~~   ** Demand-to-Supply interface energy check value iteration history trace: 1015.787111,1015.787111,1015.787111,1015.787111,1015.787111,1015.787111,1015.787111,1015.787111,1015.787112,1015.787112,
   **   ~~~   ** Supply-to-demand interface deck 1 energy check value iteration history trace: 396.353646,396.353646,396.353646,396.353646,396.353646,396.353646,396.353646,396.353646,396.353646,396.353646,
   ** Warning ** SimHVAC: Maximum iterations (20) exceeded for all HVAC loops, at ANNUAL, 09/19 20:45 - 21:00
   **   ~~~   ** The solution for one or more of the Air Loop HVAC systems did not appear to converge
   **   ~~~   ** Air System Named = CENTRAL SYSTEM did not converge for mass flow rate
   **   ~~~   ** Check values should be zero. Most Recent values listed first.
   **   ~~~   ** Demand-to-Supply interface mass flow rate check value iteration history trace: 0.100330,0.100330,0.100330,0.100330,0.100330,0.100330,0.100330,0.100330,0.100330,0.100330,
   **   ~~~   ** Supply-to-demand interface deck 1 mass flow rate check value iteration history trace: 0.100330,0.100330,0.100330,0.100330,0.100330,0.100330,0.100330,0.100330,0.100330,0.100330,
   **   ~~~   ** Air System Named = CENTRAL SYSTEM did not converge for energy
   **   ~~~   ** Check values should be zero. Most Recent values listed first.
   **   ~~~   ** Demand-to-Supply interface energy check value iteration history trace: 2411.869795,2411.869796,2411.869796,2411.869796,2411.869796,2411.869796,2411.869796,2411.869797,2411.869797,2411.869797,
   **   ~~~   ** Supply-to-demand interface deck 1 energy check value iteration history trace: 952.013628,952.013628,952.013628,952.013628,952.013628,952.013628,952.013628,952.013628,952.013628,952.013628,
   ** Warning ** SimHVAC: Maximum iterations (20) exceeded for all HVAC loops, at ANNUAL, 09/23 19:53 - 20:00
   **   ~~~   ** The solution for one or more of the Air Loop HVAC systems did not appear to converge
   **   ~~~   ** Air System Named = CENTRAL SYSTEM did not converge for mass flow rate
   **   ~~~   ** Check values should be zero. Most Recent values listed first.
   **   ~~~   ** Demand-to-Supply interface mass flow rate check value iteration history trace: 0.124676,0.124676,0.124676,0.124676,0.124676,0.124676,0.124676,0.124676,0.124676,0.124676,
   **   ~~~   ** Supply-to-demand interface deck 1 mass flow rate check value iteration history trace: 0.124676,0.124676,0.124676,0.124676,0.124676,0.124676,0.124676,0.124676,0.124676,0.124676,
   **   ~~~   ** Air System Named = CENTRAL SYSTEM did not converge for energy
   **   ~~~   ** Check values should be zero. Most Recent values listed first.
   **   ~~~   ** Demand-to-Supply interface energy check value iteration history trace: 2938.056013,2938.056013,2938.056014,2938.056014,2938.056015,2938.056015,2938.056016,2938.056016,2938.056017,2938.056017,
   **   ~~~   ** Supply-to-demand interface deck 1 energy check value iteration history trace: 1395.185302,1395.185302,1395.185303,1395.185303,1395.185303,1395.185303,1395.185304,1395.185304,1395.185304,1395.185304,
   ** Warning ** SimHVAC: Maximum iterations (20) exceeded for all HVAC loops, at ANNUAL, 10/02 16:45 - 17:00
   **   ~~~   ** The solution for one or more of the Air Loop HVAC systems did not appear to converge
   **   ~~~   ** Air System Named = CENTRAL SYSTEM did not converge for mass flow rate
   **   ~~~   ** Check values should be zero. Most Recent values listed first.
   **   ~~~   ** Demand-to-Supply interface mass flow rate check value iteration history trace: 4.958218E-002,4.958218E-002,4.958218E-002,4.958218E-002,4.958218E-002,4.958218E-002,4.958218E-002,4.958218E-002,4.958218E-002,4.958218E-002,
   **   ~~~   ** Supply-to-demand interface deck 1 mass flow rate check value iteration history trace: 4.958218E-002,4.958218E-002,4.958218E-002,4.958218E-002,4.958218E-002,4.958218E-002,4.958218E-002,4.958218E-002,4.958218E-002,4.958218E-002,
   **   ~~~   ** Air System Named = CENTRAL SYSTEM did not converge for energy
   **   ~~~   ** Check values should be zero. Most Recent values listed first.
   **   ~~~   ** Demand-to-Supply interface energy check value iteration history trace: 980.634853,980.634853,980.634853,980.634853,980.634853,980.634853,980.634853,980.634853,980.634853,980.634853,
   **   ~~~   ** Supply-to-demand interface deck 1 energy check value iteration history trace: 1718.120265,1718.120265,1718.120265,1718.120265,1718.120264,1718.120264,1718.120264,1718.120264,1718.120264,1718.120264,
   ** Warning ** SimHVAC: Maximum iterations (20) exceeded for all HVAC loops, at ANNUAL, 10/22 13:15 - 13:30
   **   ~~~   ** The solution for one or more of the Air Loop HVAC systems did not appear to converge
   **   ~~~   ** Air System Named = CENTRAL SYSTEM did not converge for mass flow rate
   **   ~~~   ** Check values should be zero. Most Recent values listed first.
   **   ~~~   ** Demand-to-Supply interface mass flow rate check value iteration history trace: 6.507926E-002,6.507926E-002,6.507926E-002,6.507926E-002,6.507926E-002,6.507926E-002,6.507926E-002,6.507926E-002,6.507926E-002,6.507926E-002,
   **   ~~~   ** Supply-to-demand interface deck 1 mass flow rate check value iteration history trace: 6.507926E-002,6.507926E-002,6.507926E-002,6.507926E-002,6.507926E-002,6.507926E-002,6.507926E-002,6.507926E-002,6.507926E-002,6.507926E-002,
   **   ~~~   ** Air System Named = CENTRAL SYSTEM did not converge for energy
   **   ~~~   ** Check values should be zero. Most Recent values listed first.
   **   ~~~   ** Demand-to-Supply interface energy check value iteration history trace: 1289.623240,1289.623240,1289.623240,1289.623240,1289.623240,1289.623240,1289.623240,1289.623240,1289.623240,1289.623240,
   **   ~~~   ** Supply-to-demand interface deck 1 energy check value iteration history trace: 2222.863830,2222.863830,2222.863830,2222.863830,2222.863830,2222.863830,2222.863830,2222.863830,2222.863830,2222.863829,
   ** Warning ** SimHVAC: Maximum iterations (20) exceeded for all HVAC loops, at ANNUAL, 10/26 12:30 - 12:35
   **   ~~~   ** The solution for one or more of the Air Loop HVAC systems did not appear to converge
   **   ~~~   ** Air System Named = CENTRAL SYSTEM did not converge for mass flow rate
   **   ~~~   ** Check values should be zero. Most Recent values listed first.
   **   ~~~   ** Demand-to-Supply interface mass flow rate check value iteration history trace: 6.508443E-002,6.508443E-002,6.508443E-002,6.508443E-002,6.508443E-002,6.508443E-002,6.508443E-002,6.508443E-002,6.508443E-002,6.508443E-002,
   **   ~~~   ** Supply-to-demand interface deck 1 mass flow rate check value iteration history trace: 6.508443E-002,6.508443E-002,6.508443E-002,6.508443E-002,6.508443E-002,6.508443E-002,6.508443E-002,6.508443E-002,6.508443E-002,6.508443E-002,
   **   ~~~   ** Air System Named = CENTRAL SYSTEM did not converge for energy
   **   ~~~   ** Check values should be zero. Most Recent values listed first.
   **   ~~~   ** Demand-to-Supply interface energy check value iteration history trace: 1285.998662,1285.998662,1285.998662,1285.998662,1285.998662,1285.998662,1285.998662,1285.998662,1285.998662,1285.998662,
   **   ~~~   ** Supply-to-demand interface deck 1 energy check value iteration history trace: 2215.392143,2215.392143,2215.392142,2215.392142,2215.392142,2215.392142,2215.392142,2215.392142,2215.392142,2215.392142,
   ** Warning ** SimHVAC: Maximum iterations (20) exceeded for all HVAC loops, at ANNUAL, 11/13 09:15 - 09:17
   **   ~~~   ** The solution for one or more of the Air Loop HVAC systems did not appear to converge
   **   ~~~   ** Air System Named = CENTRAL SYSTEM did not converge for mass flow rate
   **   ~~~   ** Check values should be zero. Most Recent values listed first.
   **   ~~~   ** Demand-to-Supply interface mass flow rate check value iteration history trace: 7.501735E-002,7.501735E-002,7.501735E-002,7.501735E-002,7.501735E-002,7.501735E-002,7.501735E-002,7.501735E-002,7.501735E-002,7.501735E-002,
   **   ~~~   ** Supply-to-demand interface deck 1 mass flow rate check value iteration history trace: 7.501735E-002,7.501735E-002,7.501735E-002,7.501735E-002,7.501735E-002,7.501735E-002,7.501735E-002,7.501735E-002,7.501735E-002,7.501735E-002,
   **   ~~~   ** Air System Named = CENTRAL SYSTEM did not converge for energy
   **   ~~~   ** Check values should be zero. Most Recent values listed first.
   **   ~~~   ** Demand-to-Supply interface energy check value iteration history trace: 1486.575170,1486.575170,1486.575170,1486.575170,1486.575170,1486.575170,1486.575170,1486.575170,1486.575170,1486.575170,
   **   ~~~   ** Supply-to-demand interface deck 1 energy check value iteration history trace: 2289.340893,2289.340892,2289.340892,2289.340892,2289.340892,2289.340892,2289.340892,2289.340892,2289.340892,2289.340891,
   ************* Simulation Error Summary *************
   ** Warning ** The following Report Variables were requested but not generated -- check.rdd file
   **   ~~~   ** Either the IDF did not contain these elements, the variable name is misspelled,
   **   ~~~   ** or the requested variable is an advanced output which requires Output : Diagnostics, DisplayAdvancedReportVariables;
   ************* Key=*, VarName=BASEBOARD TOTAL HEATING ENERGY, Frequency=
   ************* Key=*, VarName=WATER HEATER NATURALGAS ENERGY, Frequency=
   ************* Key=*, VarName=COOLING COIL TOTAL HEATING ENERGY, Frequency=
   ************* There are 34 unused schedules in input.
   ************* There are 388 unused week schedules in input.
   ************* There are 396 unused day schedules in input.
   ************* Use Output:Diagnostics,DisplayUnusedSchedules; to see them.
   *************
   ************* ===== Recurring Error Summary =====
   ************* The following recurring error messages occurred.
   *************
   *************  ** Warning ** "TOTAL HOT WATER LOAD" - Target water temperature should be less than or equal to the hot water temperature error continues...
   *************  **   ~~~   **   This error occurred 53269 total times;
   *************  **   ~~~   **   during Warmup 0 times;
   *************  **   ~~~   **   during Sizing 0 times.
   *************  **   ~~~   **   Max=6.941149  Min=1.117487E-003
   *************
   *************  ** Warning ** SimHVAC: Exceeding Maximum iterations for all HVAC loops, during ANNUAL continues
   *************  **   ~~~   **   This error occurred 1 total times;
   *************  **   ~~~   **   during Warmup 0 times;
   *************  **   ~~~   **   during Sizing 0 times.
   *************
   *************
   ************* ===== Final Error Summary =====
   ************* The following error categories occurred.  Consider correcting or noting.
   ************* Nominally Unused Constructions
   ************* ..The nominally unused constructions warning is provided to alert you to potential conditions that can cause
   ************* ..extra time during simulation. Each construction is calculated by the algorithm indicated in the HeatBalanceAlgorithm
   ************* ..object. You may remove the constructions indicated (when you use the DisplayExtraWarnings option).
   *************
   ************* EnergyPlus Warmup Error Summary. During Warmup: 1 Warning; 0 Severe Errors.
   ************* EnergyPlus Sizing Error Summary. During Sizing: 4 Warning; 0 Severe Errors.
   ************* EnergyPlus Completed Successfully-- 53302 Warning; 0 Severe Errors; Elapsed Time=00hr 01min 27.20sec
