Program Version,EnergyPlus, Version 22.2.0-c249759bad, YMD=2023.09.01 19:54,
   ************* Beginning Zone Sizing Calculations
   ** Warning ** ProcessScheduleInput: Schedule:Constant="ALWAYS ON DISCRETE", Schedule Type Limits Name="ONOFF" not found -- will not be validated
   ** Warning ** Foundation:Kiva="KIVA FOUNDATION", no Interior Horizontal Insulation Material Name defined
   **   ~~~   ** Interior Horizontal Insulation Depth will not be used.
   ** Warning ** CheckUsedConstructions: There are 15 nominally unused constructions in input.
   **   ~~~   ** Each Unused construction is shown.
   ************* Construction=INTERIOR FLOOR
   ************* Construction=INTERIOR WINDOW
   ************* Construction=EXTERIOR DOOR
   ************* Construction=INTERIOR DOOR
   ************* Construction=GABLE CONSTRUCTION
   ************* Construction=CRAWL_FLOOR
   ************* Construction=INSULATED PIPE
   ************* Construction=PLAIN PIPE
   ************* Construction=TDD PIPE
   ************* Construction=TDD DOME
   ************* Construction=TDD DIFFUSER
   ************* Construction=CRAWL WALL
   ************* Construction=CEILING-FLOOR-LAYER
   ************* Construction=SLAB CONSTRUCTION W FULL R10 INSULATION
   ************* Construction=SLAB CONSTRUCTION W FULL R5 INSULATION
   ** Warning ** GetDXCoils: Coil:Heating:DX:SingleSpeed="DX_HEATING_COIL" curve values
   **   ~~~   ** ... Defrost Energy Input Ratio Function of Temperature Curve Name = DEFROSTEIR output is not equal to 1.0 (+ or - 10%) at rated conditions.
   **   ~~~   ** ... Curve output at rated conditions = 0.152
   ************* Beginning System Sizing Calculations
   ************* Beginning Plant Sizing Calculations
   ** Warning ** SizeDXCoil Coil:Cooling:DX:SingleSpeed DX_COOLING_COIL
   **   ~~~   ** ...Gross Rated Total Cooling Capacity [W] will be limited by the maximum rated volume flow per rated total capacity ratio.
   **   ~~~   ** ...DX coil volume flow rate ( m3/s ) = 0.454422
   **   ~~~   ** ...Requested capacity ( W ) = 6570.434
   **   ~~~   ** ...Requested flow/capacity ratio ( m3/s/W ) = 6.916E-005
   **   ~~~   ** ...Maximum flow/capacity ratio ( m3/s/W ) = 6.041E-005
   **   ~~~   ** ...Adjusted capacity ( W ) = 7522.313
   ** Warning ** Coil:WaterHeating:AirToWaterHeatPump:Wrapped "HEAT PUMP WATER HEATER EVAPORATOR": Rated air volume flow rate per watt of rated total water heating capacity is out of range
   **   ~~~   ** Min Rated Vol Flow Per Watt=[4.027E-005], Rated Vol Flow Per Watt=[1.510E-004], Max Rated Vol Flow Per Watt=[8.056E-005]. See Input-Output Reference Manual for valid range.
   ************* SizeFan: : Potential issue with equipment sizing for Fan:OnOff HEAT PUMP WATER HEATER FAN
   **   ~~~   ** User-Specified Maximum Flow Rate [m3/s] = 0.22653
   **   ~~~   ** differs from Design Size Maximum Flow Rate [m3/s] = 7.55250E-002
   **   ~~~   ** This may, or may not, indicate mismatched component sizes.
   **   ~~~   ** Verify that the value entered is intended and is consistent with other components.
   ** Warning ** Water heater = WATER HEATER TANK:  Recovery Efficiency and Energy Factor could not be calculated during the test for standard ratings
   **   ~~~   ** Setpoint was never recovered and/or heater never turned on
   ** Warning ** Check input. Pump nominal power or motor efficiency is set to 0, for pump=MAINS PRESSURE
   ** Warning ** Output:Meter: invalid Key Name="ELECTRIC_RANGE:INTERIOREQUIPMENT:ELECTRICITY" - not found.
   ** Warning ** Output:Meter: invalid Key Name="ELECTRIC_DRYER:INTERIOREQUIPMENT:ELECTRICITY" - not found.
   ** Warning ** Output:Meter: invalid Key Name="HEATRECOVERY:ELECTRICITY" - not found.
   ** Warning ** Output:Meter: invalid Key Name="HEATING:NATURALGAS" - not found.
   ** Warning ** Output:Meter: invalid Key Name="WATERSYSTEMS:NATURALGAS" - not found.
   ** Warning ** Output:Meter: invalid Key Name="PROPANE:FACILITY" - not found.
   ** Warning ** Output:Meter: invalid Key Name="HEATING:PROPANE" - not found.
   ************* Testing Individual Branch Integrity
   ************* All Branches passed integrity testing
   ************* Testing Individual Supply Air Path Integrity
   ************* All Supply Air Paths passed integrity testing
   ************* Testing Individual Return Air Path Integrity
   ************* All Return Air Paths passed integrity testing
   ************* No node connection errors were found.
   ************* Beginning Simulation
   ** Warning ** AirflowNetwork::Solver::validate_distribution: Heat pump water heater is simulated along with an AirflowNetwork but is not included in the AirflowNetwork.
   ** Warning ** CalcEquipmentFlowRates: "TOTAL HOT WATER LOAD" - Target water temperature is greater than the hot water temperature by (5.60 C)
   **   ~~~   **  Environment=EXTREME_WINTER, at Simulation time=01/01 06:00 - 06:15
   **   ~~~   ** ...target water temperature     = 53.33 C
   **   ~~~   ** ...hot water temperature        = 47.73 C
   **   ~~~   ** ...Target water temperature should be less than or equal to the hot water temperature. Verify temperature setpoints and schedules.
   ** Warning ** SimHVAC: Maximum iterations (20) exceeded for all HVAC loops, at ANNUAL, 02/18 15:38 - 15:45
   **   ~~~   ** The solution for one or more of the Air Loop HVAC systems did not appear to converge
   **   ~~~   ** Air System Named = CENTRAL SYSTEM did not converge for mass flow rate
   **   ~~~   ** Check values should be zero. Most Recent values listed first.
   **   ~~~   ** Demand-to-Supply interface mass flow rate check value iteration history trace: 8.454539E-002,8.454539E-002,8.454539E-002,8.454539E-002,8.454539E-002,8.454539E-002,8.454539E-002,8.454539E-002,8.454539E-002,8.454539E-002,
   **   ~~~   ** Supply-to-demand interface deck 1 mass flow rate check value iteration history trace: 8.454539E-002,8.454539E-002,8.454539E-002,8.454539E-002,8.454539E-002,8.454539E-002,8.454539E-002,8.454539E-002,8.454539E-002,8.454539E-002,
   **   ~~~   ** Air System Named = CENTRAL SYSTEM did not converge for energy
   **   ~~~   ** Check values should be zero. Most Recent values listed first.
   **   ~~~   ** Demand-to-Supply interface energy check value iteration history trace: 1675.297866,1675.297866,1675.297865,1675.297865,1675.297865,1675.297865,1675.297865,1675.297865,1675.297865,1675.297865,
   **   ~~~   ** Supply-to-demand interface deck 1 energy check value iteration history trace: 2718.795083,2718.795083,2718.795083,2718.795083,2718.795083,2718.795082,2718.795082,2718.795082,2718.795082,2718.795082,
   ** Warning ** SimHVAC: Maximum iterations (20) exceeded for all HVAC loops, at ANNUAL, 03/19 11:15 - 11:30
   **   ~~~   ** The solution for one or more of the Air Loop HVAC systems did not appear to converge
   **   ~~~   ** Air System Named = CENTRAL SYSTEM did not converge for mass flow rate
   **   ~~~   ** Check values should be zero. Most Recent values listed first.
   **   ~~~   ** Demand-to-Supply interface mass flow rate check value iteration history trace: 8.944128E-002,8.944128E-002,8.944128E-002,8.944128E-002,8.944128E-002,8.944128E-002,8.944128E-002,8.944128E-002,8.944128E-002,8.944128E-002,
   **   ~~~   ** Supply-to-demand interface deck 1 mass flow rate check value iteration history trace: 8.944128E-002,8.944128E-002,8.944128E-002,8.944128E-002,8.944128E-002,8.944128E-002,8.944128E-002,8.944128E-002,8.944128E-002,8.944128E-002,
   **   ~~~   ** Air System Named = CENTRAL SYSTEM did not converge for energy
   **   ~~~   ** Check values should be zero. Most Recent values listed first.
   **   ~~~   ** Demand-to-Supply interface energy check value iteration history trace: 1772.381991,1772.381991,1772.381991,1772.381991,1772.381991,1772.381991,1772.381991,1772.381991,1772.381990,1772.381990,
   **   ~~~   ** Supply-to-demand interface deck 1 energy check value iteration history trace: 2868.816246,2868.816246,2868.816246,2868.816246,2868.816246,2868.816246,2868.816246,2868.816245,2868.816245,2868.816245,
   ** Warning ** SimHVAC: Maximum iterations (20) exceeded for all HVAC loops, at ANNUAL, 03/29 08:15 - 08:19
   **   ~~~   ** The solution for one or more of the Air Loop HVAC systems did not appear to converge
   **   ~~~   ** Air System Named = CENTRAL SYSTEM did not converge for mass flow rate
   **   ~~~   ** Check values should be zero. Most Recent values listed first.
   **   ~~~   ** Demand-to-Supply interface mass flow rate check value iteration history trace: 6.747707E-002,6.747707E-002,6.747707E-002,6.747707E-002,6.747707E-002,6.747707E-002,6.747707E-002,6.747707E-002,6.747707E-002,6.747707E-002,
   **   ~~~   ** Supply-to-demand interface deck 1 mass flow rate check value iteration history trace: 6.747707E-002,6.747707E-002,6.747707E-002,6.747707E-002,6.747707E-002,6.747707E-002,6.747707E-002,6.747707E-002,6.747707E-002,6.747707E-002,
   **   ~~~   ** Air System Named = CENTRAL SYSTEM did not converge for energy
   **   ~~~   ** Check values should be zero. Most Recent values listed first.
   **   ~~~   ** Demand-to-Supply interface energy check value iteration history trace: 1337.121140,1337.121140,1337.121140,1337.121140,1337.121140,1337.121140,1337.121140,1337.121139,1337.121139,1337.121139,
   **   ~~~   ** Supply-to-demand interface deck 1 energy check value iteration history trace: 2330.001130,2330.001130,2330.001130,2330.001130,2330.001130,2330.001130,2330.001130,2330.001130,2330.001130,2330.001130,
   ** Warning ** SimHVAC: Maximum iterations (20) exceeded for all HVAC loops, at ANNUAL, 04/14 15:30 - 15:45
   **   ~~~   ** The solution for one or more of the Air Loop HVAC systems did not appear to converge
   **   ~~~   ** Air System Named = CENTRAL SYSTEM did not converge for mass flow rate
   **   ~~~   ** Check values should be zero. Most Recent values listed first.
   **   ~~~   ** Demand-to-Supply interface mass flow rate check value iteration history trace: 5.022006E-002,5.022006E-002,5.022006E-002,5.022006E-002,5.022006E-002,5.022006E-002,5.022006E-002,5.022006E-002,5.022006E-002,5.022006E-002,
   **   ~~~   ** Supply-to-demand interface deck 1 mass flow rate check value iteration history trace: 5.022006E-002,5.022006E-002,5.022006E-002,5.022006E-002,5.022006E-002,5.022006E-002,5.022006E-002,5.022006E-002,5.022006E-002,5.022006E-002,
   **   ~~~   ** Air System Named = CENTRAL SYSTEM did not converge for energy
   **   ~~~   ** Check values should be zero. Most Recent values listed first.
   **   ~~~   ** Demand-to-Supply interface energy check value iteration history trace: 994.793222,994.793221,994.793221,994.793221,994.793221,994.793221,994.793221,994.793221,994.793221,994.793221,
   **   ~~~   ** Supply-to-demand interface deck 1 energy check value iteration history trace: 1756.635936,1756.635936,1756.635936,1756.635936,1756.635936,1756.635936,1756.635936,1756.635935,1756.635935,1756.635935,
   ** Warning ** SimHVAC: Maximum iterations (20) exceeded for all HVAC loops, at ANNUAL, 04/27 07:30 - 07:45
   **   ~~~   ** The solution for one or more of the Air Loop HVAC systems did not appear to converge
   **   ~~~   ** Air System Named = CENTRAL SYSTEM did not converge for mass flow rate
   **   ~~~   ** Check values should be zero. Most Recent values listed first.
   **   ~~~   ** Demand-to-Supply interface mass flow rate check value iteration history trace: 6.345806E-002,6.345806E-002,6.345806E-002,6.345806E-002,6.345806E-002,6.345806E-002,6.345806E-002,6.345806E-002,6.345806E-002,6.345806E-002,
   **   ~~~   ** Supply-to-demand interface deck 1 mass flow rate check value iteration history trace: 6.345806E-002,6.345806E-002,6.345806E-002,6.345806E-002,6.345806E-002,6.345806E-002,6.345806E-002,6.345806E-002,6.345806E-002,6.345806E-002,
   **   ~~~   ** Air System Named = CENTRAL SYSTEM did not converge for energy
   **   ~~~   ** Check values should be zero. Most Recent values listed first.
   **   ~~~   ** Demand-to-Supply interface energy check value iteration history trace: 1257.472266,1257.472266,1257.472266,1257.472266,1257.472266,1257.472266,1257.472266,1257.472266,1257.472266,1257.472266,
   **   ~~~   ** Supply-to-demand interface deck 1 energy check value iteration history trace: 2236.447595,2236.447595,2236.447595,2236.447595,2236.447595,2236.447595,2236.447595,2236.447595,2236.447594,2236.447594,
   ** Warning ** SimHVAC: Maximum iterations (20) exceeded for all HVAC loops, at ANNUAL, 05/02 08:17 - 08:19
   **   ~~~   ** The solution for one or more of the Air Loop HVAC systems did not appear to converge
   **   ~~~   ** Air System Named = CENTRAL SYSTEM did not converge for mass flow rate
   **   ~~~   ** Check values should be zero. Most Recent values listed first.
   **   ~~~   ** Demand-to-Supply interface mass flow rate check value iteration history trace: 8.791627E-002,8.791627E-002,8.791627E-002,8.791627E-002,8.791627E-002,8.791627E-002,8.791627E-002,8.791627E-002,8.791627E-002,8.791627E-002,
   **   ~~~   ** Supply-to-demand interface deck 1 mass flow rate check value iteration history trace: 8.791627E-002,8.791627E-002,8.791627E-002,8.791627E-002,8.791627E-002,8.791627E-002,8.791627E-002,8.791627E-002,8.791627E-002,8.791627E-002,
   **   ~~~   ** Air System Named = CENTRAL SYSTEM did not converge for energy
   **   ~~~   ** Check values should be zero. Most Recent values listed first.
   **   ~~~   ** Demand-to-Supply interface energy check value iteration history trace: 1742.344616,1742.344616,1742.344616,1742.344616,1742.344615,1742.344615,1742.344615,1742.344615,1742.344615,1742.344615,
   **   ~~~   ** Supply-to-demand interface deck 1 energy check value iteration history trace: 2712.753797,2712.753797,2712.753797,2712.753797,2712.753796,2712.753796,2712.753796,2712.753796,2712.753796,2712.753795,
   ** Warning ** SimHVAC: Maximum iterations (20) exceeded for all HVAC loops, at ANNUAL, 05/03 07:15 - 07:19
   **   ~~~   ** The solution for one or more of the Air Loop HVAC systems did not appear to converge
   **   ~~~   ** Air System Named = CENTRAL SYSTEM did not converge for mass flow rate
   **   ~~~   ** Check values should be zero. Most Recent values listed first.
   **   ~~~   ** Demand-to-Supply interface mass flow rate check value iteration history trace: 9.397190E-002,9.397190E-002,9.397190E-002,9.397190E-002,9.397190E-002,9.397190E-002,9.397190E-002,9.397190E-002,9.397190E-002,9.397190E-002,
   **   ~~~   ** Supply-to-demand interface deck 1 mass flow rate check value iteration history trace: 9.397190E-002,9.397190E-002,9.397190E-002,9.397190E-002,9.397190E-002,9.397190E-002,9.397190E-002,9.397190E-002,9.397190E-002,9.397190E-002,
   **   ~~~   ** Air System Named = CENTRAL SYSTEM did not converge for energy
   **   ~~~   ** Check values should be zero. Most Recent values listed first.
   **   ~~~   ** Demand-to-Supply interface energy check value iteration history trace: 1862.084184,1862.084184,1862.084184,1862.084184,1862.084184,1862.084184,1862.084184,1862.084183,1862.084183,1862.084183,
   **   ~~~   ** Supply-to-demand interface deck 1 energy check value iteration history trace: 2950.882138,2950.882138,2950.882138,2950.882138,2950.882138,2950.882138,2950.882137,2950.882137,2950.882137,2950.882137,
   ** Warning ** SimHVAC: Maximum iterations (20) exceeded for all HVAC loops, at ANNUAL, 05/14 04:45 - 04:52
   **   ~~~   ** The solution for one or more of the Air Loop HVAC systems did not appear to converge
   **   ~~~   ** Air System Named = CENTRAL SYSTEM did not converge for mass flow rate
   **   ~~~   ** Check values should be zero. Most Recent values listed first.
   **   ~~~   ** Demand-to-Supply interface mass flow rate check value iteration history trace: 5.703183E-002,5.703183E-002,5.703183E-002,5.703183E-002,5.703183E-002,5.703183E-002,5.703183E-002,5.703183E-002,5.703183E-002,5.703183E-002,
   **   ~~~   ** Supply-to-demand interface deck 1 mass flow rate check value iteration history trace: 5.703183E-002,5.703183E-002,5.703183E-002,5.703183E-002,5.703183E-002,5.703183E-002,5.703183E-002,5.703183E-002,5.703183E-002,5.703183E-002,
   **   ~~~   ** Air System Named = CENTRAL SYSTEM did not converge for energy
   **   ~~~   ** Check values should be zero. Most Recent values listed first.
   **   ~~~   ** Demand-to-Supply interface energy check value iteration history trace: 1083.347287,1083.347287,1083.347287,1083.347287,1083.347287,1083.347287,1083.347287,1083.347287,1083.347287,1083.347287,
   **   ~~~   ** Supply-to-demand interface deck 1 energy check value iteration history trace: 1897.919228,1897.919227,1897.919227,1897.919227,1897.919227,1897.919227,1897.919227,1897.919227,1897.919227,1897.919227,
   ** Warning ** SimHVAC: Maximum iterations (20) exceeded for all HVAC loops, at ANNUAL, 06/17 08:38 - 08:45
   **   ~~~   ** The solution for one or more of the Air Loop HVAC systems did not appear to converge
   **   ~~~   ** Air System Named = CENTRAL SYSTEM did not converge for mass flow rate
   **   ~~~   ** Check values should be zero. Most Recent values listed first.
   **   ~~~   ** Demand-to-Supply interface mass flow rate check value iteration history trace: 6.432439E-002,6.432439E-002,6.432439E-002,6.432439E-002,6.432439E-002,6.432439E-002,6.432439E-002,6.432439E-002,6.432439E-002,6.432439E-002,
   **   ~~~   ** Supply-to-demand interface deck 1 mass flow rate check value iteration history trace: 6.432439E-002,6.432439E-002,6.432439E-002,6.432439E-002,6.432439E-002,6.432439E-002,6.432439E-002,6.432439E-002,6.432439E-002,6.432439E-002,
   **   ~~~   ** Air System Named = CENTRAL SYSTEM did not converge for energy
   **   ~~~   ** Check values should be zero. Most Recent values listed first.
   **   ~~~   ** Demand-to-Supply interface energy check value iteration history trace: 1274.217568,1274.217568,1274.217568,1274.217568,1274.217568,1274.217568,1274.217568,1274.217568,1274.217568,1274.217568,
   **   ~~~   ** Supply-to-demand interface deck 1 energy check value iteration history trace: 2247.133025,2247.133025,2247.133024,2247.133024,2247.133024,2247.133024,2247.133024,2247.133024,2247.133024,2247.133024,
   ** Warning ** SimHVAC: Maximum iterations (20) exceeded for all HVAC loops, at ANNUAL, 06/17 10:00 - 10:08
   **   ~~~   ** The solution for one or more of the Air Loop HVAC systems did not appear to converge
   **   ~~~   ** Air System Named = CENTRAL SYSTEM did not converge for mass flow rate
   **   ~~~   ** Check values should be zero. Most Recent values listed first.
   **   ~~~   ** Demand-to-Supply interface mass flow rate check value iteration history trace: 5.642315E-002,5.642315E-002,5.642315E-002,5.642315E-002,5.642315E-002,5.642315E-002,5.642315E-002,5.642315E-002,5.642315E-002,5.642315E-002,
   **   ~~~   ** Supply-to-demand interface deck 1 mass flow rate check value iteration history trace: 5.642315E-002,5.642315E-002,5.642315E-002,5.642315E-002,5.642315E-002,5.642315E-002,5.642315E-002,5.642315E-002,5.642315E-002,5.642315E-002,
   **   ~~~   ** Air System Named = CENTRAL SYSTEM did not converge for energy
   **   ~~~   ** Check values should be zero. Most Recent values listed first.
   **   ~~~   ** Demand-to-Supply interface energy check value iteration history trace: 1114.917883,1114.917883,1114.917883,1114.917883,1114.917883,1114.917883,1114.917882,1114.917882,1114.917882,1114.917882,
   **   ~~~   ** Supply-to-demand interface deck 1 energy check value iteration history trace: 1986.687606,1986.687606,1986.687606,1986.687606,1986.687606,1986.687606,1986.687606,1986.687606,1986.687606,1986.687606,
   ** Warning ** SimHVAC: Maximum iterations (20) exceeded for all HVAC loops, at ANNUAL, 06/22 07:00 - 07:15
   **   ~~~   ** The solution for one or more of the Air Loop HVAC systems did not appear to converge
   **   ~~~   ** Air System Named = CENTRAL SYSTEM did not converge for mass flow rate
   **   ~~~   ** Check values should be zero. Most Recent values listed first.
   **   ~~~   ** Demand-to-Supply interface mass flow rate check value iteration history trace: 1.795954E-002,1.795954E-002,1.795954E-002,1.795954E-002,1.795954E-002,1.795954E-002,1.795954E-002,1.795954E-002,1.795954E-002,1.795954E-002,
   **   ~~~   ** Supply-to-demand interface deck 1 mass flow rate check value iteration history trace: 1.795954E-002,1.795954E-002,1.795954E-002,1.795954E-002,1.795954E-002,1.795954E-002,1.795954E-002,1.795954E-002,1.795954E-002,1.795954E-002,
   **   ~~~   ** Air System Named = CENTRAL SYSTEM did not converge for energy
   **   ~~~   ** Check values should be zero. Most Recent values listed first.
   **   ~~~   ** Demand-to-Supply interface energy check value iteration history trace: 422.006073,422.006073,422.006073,422.006073,422.006073,422.006073,422.006074,422.006074,422.006074,422.006074,
   **   ~~~   ** Supply-to-demand interface deck 1 energy check value iteration history trace: 186.720307,186.720307,186.720307,186.720307,186.720307,186.720307,186.720307,186.720307,186.720307,186.720307,
   ** Warning ** SimHVAC: Maximum iterations (20) exceeded for all HVAC loops, at ANNUAL, 06/27 12:53 - 13:00
   **   ~~~   ** The solution for one or more of the Air Loop HVAC systems did not appear to converge
   **   ~~~   ** Air System Named = CENTRAL SYSTEM did not converge for mass flow rate
   **   ~~~   ** Check values should be zero. Most Recent values listed first.
   **   ~~~   ** Demand-to-Supply interface mass flow rate check value iteration history trace: 0.200097,0.200097,0.200097,0.200097,0.200097,0.200097,0.200097,0.200097,0.200097,0.200097,
   **   ~~~   ** Supply-to-demand interface deck 1 mass flow rate check value iteration history trace: 0.200097,0.200097,0.200097,0.200097,0.200097,0.200097,0.200097,0.200097,0.200097,0.200097,
   **   ~~~   ** Air System Named = CENTRAL SYSTEM did not converge for energy
   **   ~~~   ** Check values should be zero. Most Recent values listed first.
   **   ~~~   ** Demand-to-Supply interface energy check value iteration history trace: 4785.752290,4785.752291,4785.752291,4785.752291,4785.752292,4785.752292,4785.752292,4785.752293,4785.752293,4785.752293,
   **   ~~~   ** Supply-to-demand interface deck 1 energy check value iteration history trace: 2377.125557,2377.125557,2377.125557,2377.125557,2377.125557,2377.125557,2377.125558,2377.125558,2377.125558,2377.125558,
   ** Warning ** SimHVAC: Maximum iterations (20) exceeded for all HVAC loops, at ANNUAL, 06/28 08:56 - 09:00
   **   ~~~   ** The solution for one or more of the Air Loop HVAC systems did not appear to converge
   **   ~~~   ** Air System Named = CENTRAL SYSTEM did not converge for mass flow rate
   **   ~~~   ** Check values should be zero. Most Recent values listed first.
   **   ~~~   ** Demand-to-Supply interface mass flow rate check value iteration history trace: 3.096443E-002,3.096443E-002,3.096443E-002,3.096443E-002,3.096443E-002,3.096443E-002,3.096443E-002,3.096443E-002,3.096443E-002,3.096443E-002,
   **   ~~~   ** Supply-to-demand interface deck 1 mass flow rate check value iteration history trace: 3.096443E-002,3.096443E-002,3.096443E-002,3.096443E-002,3.096443E-002,3.096443E-002,3.096443E-002,3.096443E-002,3.096443E-002,3.096443E-002,
   **   ~~~   ** Air System Named = CENTRAL SYSTEM did not converge for energy
   **   ~~~   ** Check values should be zero. Most Recent values listed first.
   **   ~~~   ** Demand-to-Supply interface energy check value iteration history trace: 726.889577,726.889577,726.889578,726.889578,726.889578,726.889578,726.889578,726.889578,726.889578,726.889578,
   **   ~~~   ** Supply-to-demand interface deck 1 energy check value iteration history trace: 331.456047,331.456047,331.456047,331.456047,331.456047,331.456047,331.456047,331.456047,331.456047,331.456047,
   ** Warning ** SimHVAC: Maximum iterations (20) exceeded for all HVAC loops, at ANNUAL, 09/03 08:00 - 08:15
   **   ~~~   ** The solution for one or more of the Air Loop HVAC systems did not appear to converge
   **   ~~~   ** Air System Named = CENTRAL SYSTEM did not converge for mass flow rate
   **   ~~~   ** Check values should be zero. Most Recent values listed first.
   **   ~~~   ** Demand-to-Supply interface mass flow rate check value iteration history trace: 5.336865E-002,5.336865E-002,5.336865E-002,5.336865E-002,5.336865E-002,5.336865E-002,5.336865E-002,5.336865E-002,5.336865E-002,5.336865E-002,
   **   ~~~   ** Supply-to-demand interface deck 1 mass flow rate check value iteration history trace: 5.336865E-002,5.336865E-002,5.336865E-002,5.336865E-002,5.336865E-002,5.336865E-002,5.336865E-002,5.336865E-002,5.336865E-002,5.336865E-002,
   **   ~~~   ** Air System Named = CENTRAL SYSTEM did not converge for energy
   **   ~~~   ** Check values should be zero. Most Recent values listed first.
   **   ~~~   ** Demand-to-Supply interface energy check value iteration history trace: 1057.272833,1057.272832,1057.272832,1057.272832,1057.272832,1057.272832,1057.272832,1057.272832,1057.272832,1057.272832,
   **   ~~~   ** Supply-to-demand interface deck 1 energy check value iteration history trace: 1886.982299,1886.982299,1886.982299,1886.982299,1886.982299,1886.982299,1886.982299,1886.982298,1886.982298,1886.982298,
   ************* Simulation Error Summary *************
   ** Warning ** The following Report Variables were requested but not generated -- check.rdd file
   **   ~~~   ** Either the IDF did not contain these elements, the variable name is misspelled,
   **   ~~~   ** or the requested variable is an advanced output which requires Output : Diagnostics, DisplayAdvancedReportVariables;
   ************* Key=*, VarName=BASEBOARD TOTAL HEATING ENERGY, Frequency=
   ************* Key=*, VarName=WATER HEATER NATURALGAS ENERGY, Frequency=
   ************* Key=*, VarName=COOLING COIL TOTAL HEATING ENERGY, Frequency=
   ************* There are 34 unused schedules in input.
   ************* There are 388 unused week schedules in input.
   ************* There are 396 unused day schedules in input.
   ************* Use Output:Diagnostics,DisplayUnusedSchedules; to see them.
   *************
   ************* ===== Recurring Error Summary =====
   ************* The following recurring error messages occurred.
   *************
   *************  ** Warning ** "TOTAL HOT WATER LOAD" - Target water temperature should be less than or equal to the hot water temperature error continues...
   *************  **   ~~~   **   This error occurred 115981 total times;
   *************  **   ~~~   **   during Warmup 0 times;
   *************  **   ~~~   **   during Sizing 0 times.
   *************  **   ~~~   **   Max=13.27549  Min=1.193984E-003
   *************
   *************  ** Warning ** SimHVAC: Exceeding Maximum iterations for all HVAC loops, during ANNUAL continues
   *************  **   ~~~   **   This error occurred 5 total times;
   *************  **   ~~~   **   during Warmup 0 times;
   *************  **   ~~~   **   during Sizing 0 times.
   *************
   *************
   ************* ===== Final Error Summary =====
   ************* The following error categories occurred.  Consider correcting or noting.
   ************* Nominally Unused Constructions
   ************* ..The nominally unused constructions warning is provided to alert you to potential conditions that can cause
   ************* ..extra time during simulation. Each construction is calculated by the algorithm indicated in the HeatBalanceAlgorithm
   ************* ..object. You may remove the constructions indicated (when you use the DisplayExtraWarnings option).
   *************
   ************* EnergyPlus Warmup Error Summary. During Warmup: 1 Warning; 0 Severe Errors.
   ************* EnergyPlus Sizing Error Summary. During Sizing: 4 Warning; 0 Severe Errors.
   ************* EnergyPlus Completed Successfully-- 116018 Warning; 0 Severe Errors; Elapsed Time=00hr 01min 30.58sec
