Program Version,EnergyPlus, Version 22.2.0-c249759bad, YMD=2023.09.01 19:23,
   ************* Beginning Zone Sizing Calculations
   ** Warning ** ProcessScheduleInput: Schedule:Constant="ALWAYS ON DISCRETE", Schedule Type Limits Name="ONOFF" not found -- will not be validated
   ** Warning ** Foundation:Kiva="KIVA FOUNDATION", no Interior Horizontal Insulation Material Name defined
   **   ~~~   ** Interior Horizontal Insulation Depth will not be used.
   ** Warning ** CheckUsedConstructions: There are 15 nominally unused constructions in input.
   **   ~~~   ** Each Unused construction is shown.
   ************* Construction=INTERIOR FLOOR
   ************* Construction=INTERIOR WINDOW
   ************* Construction=EXTERIOR DOOR
   ************* Construction=INTERIOR DOOR
   ************* Construction=GABLE CONSTRUCTION
   ************* Construction=CRAWL_FLOOR
   ************* Construction=INSULATED PIPE
   ************* Construction=PLAIN PIPE
   ************* Construction=TDD PIPE
   ************* Construction=TDD DOME
   ************* Construction=TDD DIFFUSER
   ************* Construction=CRAWL WALL
   ************* Construction=CEILING-FLOOR-LAYER
   ************* Construction=SLAB CONSTRUCTION W FULL R10 INSULATION
   ************* Construction=SLAB CONSTRUCTION W FULL R5 INSULATION
   ** Warning ** GetDXCoils: Coil:Heating:DX:SingleSpeed="DX_HEATING_COIL" curve values
   **   ~~~   ** ... Defrost Energy Input Ratio Function of Temperature Curve Name = DEFROSTEIR output is not equal to 1.0 (+ or - 10%) at rated conditions.
   **   ~~~   ** ... Curve output at rated conditions = 0.152
   ************* Beginning System Sizing Calculations
   ************* Beginning Plant Sizing Calculations
   ** Warning ** Coil:WaterHeating:AirToWaterHeatPump:Wrapped "HEAT PUMP WATER HEATER EVAPORATOR": Rated air volume flow rate per watt of rated total water heating capacity is out of range
   **   ~~~   ** Min Rated Vol Flow Per Watt=[4.027E-005], Rated Vol Flow Per Watt=[1.510E-004], Max Rated Vol Flow Per Watt=[8.056E-005]. See Input-Output Reference Manual for valid range.
   ************* SizeFan: : Potential issue with equipment sizing for Fan:OnOff HEAT PUMP WATER HEATER FAN
   **   ~~~   ** User-Specified Maximum Flow Rate [m3/s] = 0.22653
   **   ~~~   ** differs from Design Size Maximum Flow Rate [m3/s] = 7.55250E-002
   **   ~~~   ** This may, or may not, indicate mismatched component sizes.
   **   ~~~   ** Verify that the value entered is intended and is consistent with other components.
   ** Warning ** Water heater = WATER HEATER TANK:  Recovery Efficiency and Energy Factor could not be calculated during the test for standard ratings
   **   ~~~   ** Setpoint was never recovered and/or heater never turned on
   ** Warning ** Check input. Pump nominal power or motor efficiency is set to 0, for pump=MAINS PRESSURE
   ** Warning ** AirflowNetwork::Solver::validate_distribution: Heat pump water heater is simulated along with an AirflowNetwork but is not included in the AirflowNetwork.
   ** Warning ** Output:Meter: invalid Key Name="ELECTRIC_RANGE:INTERIOREQUIPMENT:ELECTRICITY" - not found.
   ** Warning ** Output:Meter: invalid Key Name="ELECTRIC_DRYER:INTERIOREQUIPMENT:ELECTRICITY" - not found.
   ** Warning ** Output:Meter: invalid Key Name="HEATRECOVERY:ELECTRICITY" - not found.
   ** Warning ** Output:Meter: invalid Key Name="HEATING:NATURALGAS" - not found.
   ** Warning ** Output:Meter: invalid Key Name="WATERSYSTEMS:NATURALGAS" - not found.
   ** Warning ** Output:Meter: invalid Key Name="PROPANE:FACILITY" - not found.
   ** Warning ** Output:Meter: invalid Key Name="HEATING:PROPANE" - not found.
   ************* Testing Individual Branch Integrity
   ************* All Branches passed integrity testing
   ************* Testing Individual Supply Air Path Integrity
   ************* All Supply Air Paths passed integrity testing
   ************* Testing Individual Return Air Path Integrity
   ************* All Return Air Paths passed integrity testing
   ************* No node connection errors were found.
   ************* Beginning Simulation
   ** Warning ** CalcEquipmentFlowRates: "TOTAL HOT WATER LOAD" - Target water temperature is greater than the hot water temperature by (0.71 C)
   **   ~~~   **  Environment=EXTREME_WINTER, at Simulation time=12/15 06:00 - 06:15
   **   ~~~   ** ...target water temperature     = 53.33 C
   **   ~~~   ** ...hot water temperature        = 52.63 C
   **   ~~~   ** ...Target water temperature should be less than or equal to the hot water temperature. Verify temperature setpoints and schedules.
   ** Warning ** SimHVAC: Maximum iterations (20) exceeded for all HVAC loops, at EXTREME_WINTER, 12/21 09:13 - 09:15
   **   ~~~   ** The solution for one or more of the Air Loop HVAC systems did not appear to converge
   **   ~~~   ** Air System Named = CENTRAL SYSTEM did not converge for mass flow rate
   **   ~~~   ** Check values should be zero. Most Recent values listed first.
   **   ~~~   ** Demand-to-Supply interface mass flow rate check value iteration history trace: 7.004201E-002,7.004201E-002,7.004201E-002,7.004201E-002,7.004201E-002,7.004201E-002,7.004201E-002,7.004201E-002,7.004201E-002,7.004201E-002,
   **   ~~~   ** Supply-to-demand interface deck 1 mass flow rate check value iteration history trace: 7.004201E-002,7.004201E-002,7.004201E-002,7.004201E-002,7.004201E-002,7.004201E-002,7.004201E-002,7.004201E-002,7.004201E-002,7.004201E-002,
   **   ~~~   ** Air System Named = CENTRAL SYSTEM did not converge for energy
   **   ~~~   ** Check values should be zero. Most Recent values listed first.
   **   ~~~   ** Demand-to-Supply interface energy check value iteration history trace: 1383.707471,1383.707470,1383.707470,1383.707470,1383.707470,1383.707470,1383.707470,1383.707470,1383.707470,1383.707470,
   **   ~~~   ** Supply-to-demand interface deck 1 energy check value iteration history trace: 2444.453302,2444.453302,2444.453302,2444.453302,2444.453302,2444.453302,2444.453302,2444.453302,2444.453301,2444.453301,
   ** Warning ** SimHVAC: Maximum iterations (20) exceeded for all HVAC loops, at ANNUAL, 01/10 09:08 - 09:11
   **   ~~~   ** The solution for one or more of the Air Loop HVAC systems did not appear to converge
   **   ~~~   ** Air System Named = CENTRAL SYSTEM did not converge for mass flow rate
   **   ~~~   ** Check values should be zero. Most Recent values listed first.
   **   ~~~   ** Demand-to-Supply interface mass flow rate check value iteration history trace: 6.030324E-002,6.030324E-002,6.030324E-002,6.030324E-002,6.030324E-002,6.030324E-002,6.030324E-002,6.030324E-002,6.030324E-002,6.030324E-002,
   **   ~~~   ** Supply-to-demand interface deck 1 mass flow rate check value iteration history trace: 6.030324E-002,6.030324E-002,6.030324E-002,6.030324E-002,6.030324E-002,6.030324E-002,6.030324E-002,6.030324E-002,6.030324E-002,6.030324E-002,
   **   ~~~   ** Air System Named = CENTRAL SYSTEM did not converge for energy
   **   ~~~   ** Check values should be zero. Most Recent values listed first.
   **   ~~~   ** Demand-to-Supply interface energy check value iteration history trace: 1184.596599,1184.596599,1184.596599,1184.596599,1184.596599,1184.596599,1184.596598,1184.596598,1184.596598,1184.596598,
   **   ~~~   ** Supply-to-demand interface deck 1 energy check value iteration history trace: 2115.877129,2115.877129,2115.877129,2115.877129,2115.877129,2115.877129,2115.877129,2115.877129,2115.877129,2115.877128,
   ** Warning ** SimHVAC: Maximum iterations (20) exceeded for all HVAC loops, at ANNUAL, 01/26 07:00 - 07:15
   **   ~~~   ** The solution for one or more of the Air Loop HVAC systems did not appear to converge
   **   ~~~   ** Air System Named = CENTRAL SYSTEM did not converge for mass flow rate
   **   ~~~   ** Check values should be zero. Most Recent values listed first.
   **   ~~~   ** Demand-to-Supply interface mass flow rate check value iteration history trace: 6.328966E-002,6.328966E-002,6.328966E-002,6.328966E-002,6.328966E-002,6.328966E-002,6.328966E-002,6.328966E-002,6.328966E-002,6.328966E-002,
   **   ~~~   ** Supply-to-demand interface deck 1 mass flow rate check value iteration history trace: 6.328966E-002,6.328966E-002,6.328966E-002,6.328966E-002,6.328966E-002,6.328966E-002,6.328966E-002,6.328966E-002,6.328966E-002,6.328966E-002,
   **   ~~~   ** Air System Named = CENTRAL SYSTEM did not converge for energy
   **   ~~~   ** Check values should be zero. Most Recent values listed first.
   **   ~~~   ** Demand-to-Supply interface energy check value iteration history trace: 1241.291908,1241.291908,1241.291908,1241.291908,1241.291908,1241.291908,1241.291908,1241.291908,1241.291908,1241.291908,
   **   ~~~   ** Supply-to-demand interface deck 1 energy check value iteration history trace: 2174.851129,2174.851129,2174.851129,2174.851129,2174.851129,2174.851129,2174.851129,2174.851129,2174.851129,2174.851129,
   ** Warning ** SimHVAC: Maximum iterations (20) exceeded for all HVAC loops, at ANNUAL, 02/10 11:09 - 11:12
   **   ~~~   ** The solution for one or more of the Air Loop HVAC systems did not appear to converge
   **   ~~~   ** Air System Named = CENTRAL SYSTEM did not converge for mass flow rate
   **   ~~~   ** Check values should be zero. Most Recent values listed first.
   **   ~~~   ** Demand-to-Supply interface mass flow rate check value iteration history trace: 0.103255,0.103255,0.103255,0.103255,0.103255,0.103255,0.103255,0.103255,0.103255,0.103255,
   **   ~~~   ** Supply-to-demand interface deck 1 mass flow rate check value iteration history trace: 0.103255,0.103255,0.103255,0.103255,0.103255,0.103255,0.103255,0.103255,0.103255,0.103255,
   **   ~~~   ** Air System Named = CENTRAL SYSTEM did not converge for energy
   **   ~~~   ** Check values should be zero. Most Recent values listed first.
   **   ~~~   ** Demand-to-Supply interface energy check value iteration history trace: 2440.470956,2440.470956,2440.470957,2440.470957,2440.470958,2440.470958,2440.470959,2440.470959,2440.470959,2440.470960,
   **   ~~~   ** Supply-to-demand interface deck 1 energy check value iteration history trace: 1050.714479,1050.714480,1050.714480,1050.714480,1050.714480,1050.714480,1050.714480,1050.714481,1050.714481,1050.714481,
   ** Warning ** SimHVAC: Maximum iterations (20) exceeded for all HVAC loops, at ANNUAL, 02/13 12:03 - 12:06
   **   ~~~   ** The solution for one or more of the Air Loop HVAC systems did not appear to converge
   **   ~~~   ** Air System Named = CENTRAL SYSTEM did not converge for mass flow rate
   **   ~~~   ** Check values should be zero. Most Recent values listed first.
   **   ~~~   ** Demand-to-Supply interface mass flow rate check value iteration history trace: 0.152527,0.152527,0.152527,0.152527,0.152527,0.152527,0.152527,0.152527,0.152527,0.152527,
   **   ~~~   ** Supply-to-demand interface deck 1 mass flow rate check value iteration history trace: 0.152527,0.152527,0.152527,0.152527,0.152527,0.152527,0.152527,0.152527,0.152527,0.152527,
   **   ~~~   ** Air System Named = CENTRAL SYSTEM did not converge for energy
   **   ~~~   ** Check values should be zero. Most Recent values listed first.
   **   ~~~   ** Demand-to-Supply interface energy check value iteration history trace: 3585.511425,3585.511425,3585.511425,3585.511426,3585.511426,3585.511426,3585.511427,3585.511427,3585.511428,3585.511428,
   **   ~~~   ** Supply-to-demand interface deck 1 energy check value iteration history trace: 1673.975004,1673.975004,1673.975005,1673.975005,1673.975005,1673.975005,1673.975005,1673.975005,1673.975006,1673.975006,
   ** Warning ** SimHVAC: Maximum iterations (20) exceeded for all HVAC loops, at ANNUAL, 02/14 21:00 - 21:15
   **   ~~~   ** The solution for one or more of the Air Loop HVAC systems did not appear to converge
   **   ~~~   ** Air System Named = CENTRAL SYSTEM did not converge for mass flow rate
   **   ~~~   ** Check values should be zero. Most Recent values listed first.
   **   ~~~   ** Demand-to-Supply interface mass flow rate check value iteration history trace: 0.146497,0.146497,0.146497,0.146497,0.146497,0.146497,0.146497,0.146497,0.146497,0.146497,
   **   ~~~   ** Supply-to-demand interface deck 1 mass flow rate check value iteration history trace: 0.146497,0.146497,0.146497,0.146497,0.146497,0.146497,0.146497,0.146497,0.146497,0.146497,
   **   ~~~   ** Air System Named = CENTRAL SYSTEM did not converge for energy
   **   ~~~   ** Check values should be zero. Most Recent values listed first.
   **   ~~~   ** Demand-to-Supply interface energy check value iteration history trace: 3531.469351,3531.469352,3531.469352,3531.469353,3531.469353,3531.469353,3531.469354,3531.469354,3531.469354,3531.469355,
   **   ~~~   ** Supply-to-demand interface deck 1 energy check value iteration history trace: 1398.774685,1398.774686,1398.774686,1398.774686,1398.774686,1398.774686,1398.774686,1398.774687,1398.774687,1398.774687,
   ** Warning ** SimHVAC: Maximum iterations (20) exceeded for all HVAC loops, at ANNUAL, 02/15 07:23 - 07:30
   **   ~~~   ** The solution for one or more of the Air Loop HVAC systems did not appear to converge
   **   ~~~   ** Air System Named = CENTRAL SYSTEM did not converge for mass flow rate
   **   ~~~   ** Check values should be zero. Most Recent values listed first.
   **   ~~~   ** Demand-to-Supply interface mass flow rate check value iteration history trace: 6.273406E-002,6.273406E-002,6.273406E-002,6.273406E-002,6.273406E-002,6.273406E-002,6.273406E-002,6.273406E-002,6.273406E-002,6.273406E-002,
   **   ~~~   ** Supply-to-demand interface deck 1 mass flow rate check value iteration history trace: 6.273406E-002,6.273406E-002,6.273406E-002,6.273406E-002,6.273406E-002,6.273406E-002,6.273406E-002,6.273406E-002,6.273406E-002,6.273406E-002,
   **   ~~~   ** Air System Named = CENTRAL SYSTEM did not converge for energy
   **   ~~~   ** Check values should be zero. Most Recent values listed first.
   **   ~~~   ** Demand-to-Supply interface energy check value iteration history trace: 1236.675805,1236.675805,1236.675805,1236.675805,1236.675805,1236.675805,1236.675805,1236.675805,1236.675805,1236.675805,
   **   ~~~   ** Supply-to-demand interface deck 1 energy check value iteration history trace: 2143.574010,2143.574010,2143.574009,2143.574009,2143.574009,2143.574009,2143.574009,2143.574009,2143.574009,2143.574009,
   ** Warning ** SimHVAC: Maximum iterations (20) exceeded for all HVAC loops, at ANNUAL, 02/23 20:45 - 21:00
   **   ~~~   ** The solution for one or more of the Air Loop HVAC systems did not appear to converge
   **   ~~~   ** Air System Named = CENTRAL SYSTEM did not converge for mass flow rate
   **   ~~~   ** Check values should be zero. Most Recent values listed first.
   **   ~~~   ** Demand-to-Supply interface mass flow rate check value iteration history trace: 7.689643E-002,7.689643E-002,7.689643E-002,7.689643E-002,7.689643E-002,7.689643E-002,7.689643E-002,7.689643E-002,7.689643E-002,7.689643E-002,
   **   ~~~   ** Supply-to-demand interface deck 1 mass flow rate check value iteration history trace: 7.689643E-002,7.689643E-002,7.689643E-002,7.689643E-002,7.689643E-002,7.689643E-002,7.689643E-002,7.689643E-002,7.689643E-002,7.689643E-002,
   **   ~~~   ** Air System Named = CENTRAL SYSTEM did not converge for energy
   **   ~~~   ** Check values should be zero. Most Recent values listed first.
   **   ~~~   ** Demand-to-Supply interface energy check value iteration history trace: 1841.176144,1841.176144,1841.176144,1841.176144,1841.176144,1841.176144,1841.176145,1841.176145,1841.176145,1841.176145,
   **   ~~~   ** Supply-to-demand interface deck 1 energy check value iteration history trace: 680.600060,680.600060,680.600060,680.600060,680.600060,680.600060,680.600060,680.600060,680.600060,680.600060,
   ** Warning ** SimHVAC: Maximum iterations (20) exceeded for all HVAC loops, at ANNUAL, 12/17 07:15 - 07:30
   **   ~~~   ** The solution for one or more of the Air Loop HVAC systems did not appear to converge
   **   ~~~   ** Air System Named = CENTRAL SYSTEM did not converge for mass flow rate
   **   ~~~   ** Check values should be zero. Most Recent values listed first.
   **   ~~~   ** Demand-to-Supply interface mass flow rate check value iteration history trace: 5.169965E-002,5.169965E-002,5.169965E-002,5.169965E-002,5.169965E-002,5.169965E-002,5.169965E-002,5.169965E-002,5.169965E-002,5.169965E-002,
   **   ~~~   ** Supply-to-demand interface deck 1 mass flow rate check value iteration history trace: 5.169965E-002,5.169965E-002,5.169965E-002,5.169965E-002,5.169965E-002,5.169965E-002,5.169965E-002,5.169965E-002,5.169965E-002,5.169965E-002,
   **   ~~~   ** Air System Named = CENTRAL SYSTEM did not converge for energy
   **   ~~~   ** Check values should be zero. Most Recent values listed first.
   **   ~~~   ** Demand-to-Supply interface energy check value iteration history trace: 1017.461635,1017.461635,1017.461635,1017.461635,1017.461635,1017.461635,1017.461635,1017.461635,1017.461635,1017.461635,
   **   ~~~   ** Supply-to-demand interface deck 1 energy check value iteration history trace: 1768.955084,1768.955084,1768.955083,1768.955083,1768.955083,1768.955083,1768.955083,1768.955083,1768.955083,1768.955083,
   ** Warning ** SimHVAC: Maximum iterations (20) exceeded for all HVAC loops, at ANNUAL, 12/26 09:35 - 09:40
   **   ~~~   ** The solution for one or more of the Air Loop HVAC systems did not appear to converge
   **   ~~~   ** Air System Named = CENTRAL SYSTEM did not converge for mass flow rate
   **   ~~~   ** Check values should be zero. Most Recent values listed first.
   **   ~~~   ** Demand-to-Supply interface mass flow rate check value iteration history trace: 4.791849E-002,4.791849E-002,4.791849E-002,4.791849E-002,4.791849E-002,4.791849E-002,4.791849E-002,4.791849E-002,4.791849E-002,4.791849E-002,
   **   ~~~   ** Supply-to-demand interface deck 1 mass flow rate check value iteration history trace: 4.791849E-002,4.791849E-002,4.791849E-002,4.791849E-002,4.791849E-002,4.791849E-002,4.791849E-002,4.791849E-002,4.791849E-002,4.791849E-002,
   **   ~~~   ** Air System Named = CENTRAL SYSTEM did not converge for energy
   **   ~~~   ** Check values should be zero. Most Recent values listed first.
   **   ~~~   ** Demand-to-Supply interface energy check value iteration history trace: 942.032547,942.032547,942.032547,942.032547,942.032547,942.032547,942.032546,942.032546,942.032546,942.032546,
   **   ~~~   ** Supply-to-demand interface deck 1 energy check value iteration history trace: 1676.177415,1676.177415,1676.177415,1676.177415,1676.177415,1676.177415,1676.177415,1676.177415,1676.177415,1676.177415,
   ************* Simulation Error Summary *************
   ** Warning ** The following Report Variables were requested but not generated -- check.rdd file
   **   ~~~   ** Either the IDF did not contain these elements, the variable name is misspelled,
   **   ~~~   ** or the requested variable is an advanced output which requires Output : Diagnostics, DisplayAdvancedReportVariables;
   ************* Key=*, VarName=BASEBOARD TOTAL HEATING ENERGY, Frequency=
   ************* Key=*, VarName=WATER HEATER NATURALGAS ENERGY, Frequency=
   ************* Key=*, VarName=COOLING COIL TOTAL HEATING ENERGY, Frequency=
   ************* There are 34 unused schedules in input.
   ************* There are 388 unused week schedules in input.
   ************* There are 396 unused day schedules in input.
   ************* Use Output:Diagnostics,DisplayUnusedSchedules; to see them.
   *************
   ************* ===== Recurring Error Summary =====
   ************* The following recurring error messages occurred.
   *************
   *************  ** Warning ** "TOTAL HOT WATER LOAD" - Target water temperature should be less than or equal to the hot water temperature error continues...
   *************  **   ~~~   **   This error occurred 154637 total times;
   *************  **   ~~~   **   during Warmup 0 times;
   *************  **   ~~~   **   during Sizing 0 times.
   *************  **   ~~~   **   Max=8.544399  Min=1.124183E-003
   *************
   *************
   ************* ===== Final Error Summary =====
   ************* The following error categories occurred.  Consider correcting or noting.
   ************* Nominally Unused Constructions
   ************* ..The nominally unused constructions warning is provided to alert you to potential conditions that can cause
   ************* ..extra time during simulation. Each construction is calculated by the algorithm indicated in the HeatBalanceAlgorithm
   ************* ..object. You may remove the constructions indicated (when you use the DisplayExtraWarnings option).
   *************
   ************* EnergyPlus Warmup Error Summary. During Warmup: 0 Warning; 0 Severe Errors.
   ************* EnergyPlus Sizing Error Summary. During Sizing: 4 Warning; 0 Severe Errors.
   ************* EnergyPlus Completed Successfully-- 154664 Warning; 0 Severe Errors; Elapsed Time=00hr 02min  4.95sec
