Program Version,EnergyPlus, Version 22.2.0-c249759bad, YMD=2023.09.01 18:51,
   ************* Beginning Zone Sizing Calculations
   ** Warning ** ProcessScheduleInput: Schedule:Constant="ALWAYS ON DISCRETE", Schedule Type Limits Name="ONOFF" not found -- will not be validated
   ** Warning ** Foundation:Kiva="KIVA FOUNDATION", no Interior Horizontal Insulation Material Name defined
   **   ~~~   ** Interior Horizontal Insulation Depth will not be used.
   ** Warning ** CheckUsedConstructions: There are 15 nominally unused constructions in input.
   **   ~~~   ** Each Unused construction is shown.
   ************* Construction=INTERIOR FLOOR
   ************* Construction=INTERIOR WINDOW
   ************* Construction=EXTERIOR DOOR
   ************* Construction=INTERIOR DOOR
   ************* Construction=GABLE CONSTRUCTION
   ************* Construction=CRAWL_FLOOR
   ************* Construction=INSULATED PIPE
   ************* Construction=PLAIN PIPE
   ************* Construction=TDD PIPE
   ************* Construction=TDD DOME
   ************* Construction=TDD DIFFUSER
   ************* Construction=CRAWL WALL
   ************* Construction=CEILING-FLOOR-LAYER
   ************* Construction=SLAB CONSTRUCTION W FULL R10 INSULATION
   ************* Construction=SLAB CONSTRUCTION W FULL R5 INSULATION
   ** Warning ** GetDXCoils: Coil:Heating:DX:SingleSpeed="DX_HEATING_COIL" curve values
   **   ~~~   ** ... Defrost Energy Input Ratio Function of Temperature Curve Name = DEFROSTEIR output is not equal to 1.0 (+ or - 10%) at rated conditions.
   **   ~~~   ** ... Curve output at rated conditions = 0.152
   ************* Beginning System Sizing Calculations
   ************* Beginning Plant Sizing Calculations
   ** Warning ** SizeDXCoil Coil:Cooling:DX:SingleSpeed DX_COOLING_COIL
   **   ~~~   ** ...Gross Rated Total Cooling Capacity [W] will be limited by the maximum rated volume flow per rated total capacity ratio.
   **   ~~~   ** ...DX coil volume flow rate ( m3/s ) = 0.545447
   **   ~~~   ** ...Requested capacity ( W ) = 6976.480
   **   ~~~   ** ...Requested flow/capacity ratio ( m3/s/W ) = 7.818E-005
   **   ~~~   ** ...Maximum flow/capacity ratio ( m3/s/W ) = 6.041E-005
   **   ~~~   ** ...Adjusted capacity ( W ) = 9029.094
   ** Warning ** SizeDXCoil Coil:Heating:DX:SingleSpeed DX_HEATING_COIL
   **   ~~~   ** ...Gross Rated Heating Capacity [W] will be limited by the maximum rated volume flow per rated total capacity ratio.
   **   ~~~   ** ...DX coil volume flow rate ( m3/s ) = 0.545447
   **   ~~~   ** ...Requested capacity ( W ) = 9029.094
   **   ~~~   ** ...Requested flow/capacity ratio ( m3/s/W ) = 6.041E-005
   **   ~~~   ** ...Maximum flow/capacity ratio ( m3/s/W ) = 6.041E-005
   **   ~~~   ** ...Adjusted capacity ( W ) = 9029.094
   ** Warning ** Coil:WaterHeating:AirToWaterHeatPump:Wrapped "HEAT PUMP WATER HEATER EVAPORATOR": Rated air volume flow rate per watt of rated total water heating capacity is out of range
   **   ~~~   ** Min Rated Vol Flow Per Watt=[4.027E-005], Rated Vol Flow Per Watt=[1.510E-004], Max Rated Vol Flow Per Watt=[8.056E-005]. See Input-Output Reference Manual for valid range.
   ************* SizeFan: : Potential issue with equipment sizing for Fan:OnOff HEAT PUMP WATER HEATER FAN
   **   ~~~   ** User-Specified Maximum Flow Rate [m3/s] = 0.22653
   **   ~~~   ** differs from Design Size Maximum Flow Rate [m3/s] = 7.55250E-002
   **   ~~~   ** This may, or may not, indicate mismatched component sizes.
   **   ~~~   ** Verify that the value entered is intended and is consistent with other components.
   ** Warning ** Water heater = WATER HEATER TANK:  Recovery Efficiency and Energy Factor could not be calculated during the test for standard ratings
   **   ~~~   ** Setpoint was never recovered and/or heater never turned on
   ** Warning ** Check input. Pump nominal power or motor efficiency is set to 0, for pump=MAINS PRESSURE
   ** Warning ** Output:Meter: invalid Key Name="ELECTRIC_RANGE:INTERIOREQUIPMENT:ELECTRICITY" - not found.
   ** Warning ** Output:Meter: invalid Key Name="ELECTRIC_DRYER:INTERIOREQUIPMENT:ELECTRICITY" - not found.
   ** Warning ** Output:Meter: invalid Key Name="HEATRECOVERY:ELECTRICITY" - not found.
   ** Warning ** Output:Meter: invalid Key Name="HEATING:NATURALGAS" - not found.
   ** Warning ** Output:Meter: invalid Key Name="WATERSYSTEMS:NATURALGAS" - not found.
   ** Warning ** Output:Meter: invalid Key Name="PROPANE:FACILITY" - not found.
   ** Warning ** Output:Meter: invalid Key Name="HEATING:PROPANE" - not found.
   ************* Testing Individual Branch Integrity
   ************* All Branches passed integrity testing
   ************* Testing Individual Supply Air Path Integrity
   ************* All Supply Air Paths passed integrity testing
   ************* Testing Individual Return Air Path Integrity
   ************* All Return Air Paths passed integrity testing
   ************* No node connection errors were found.
   ************* Beginning Simulation
   ** Warning ** AirflowNetwork::Solver::validate_distribution: Heat pump water heater is simulated along with an AirflowNetwork but is not included in the AirflowNetwork.
   ** Warning ** CalcEquipmentFlowRates: "TOTAL HOT WATER LOAD" - Target water temperature is greater than the hot water temperature by (2.41 C)
   **   ~~~   **  Environment=EXTREME_WINTER, at Simulation time=12/22 03:45 - 04:00
   **   ~~~   ** ...target water temperature     = 53.33 C
   **   ~~~   ** ...hot water temperature        = 50.92 C
   **   ~~~   ** ...Target water temperature should be less than or equal to the hot water temperature. Verify temperature setpoints and schedules.
   ** Warning ** SimHVAC: Maximum iterations (20) exceeded for all HVAC loops, at EXTREME_WINTER, 12/23 17:05 - 17:10
   **   ~~~   ** The solution for one or more of the Air Loop HVAC systems did not appear to converge
   **   ~~~   ** Air System Named = CENTRAL SYSTEM did not converge for mass flow rate
   **   ~~~   ** Check values should be zero. Most Recent values listed first.
   **   ~~~   ** Demand-to-Supply interface mass flow rate check value iteration history trace: 5.568378E-002,5.568378E-002,5.568378E-002,5.568378E-002,5.568378E-002,5.568378E-002,5.568378E-002,5.568378E-002,5.568378E-002,5.568378E-002,
   **   ~~~   ** Supply-to-demand interface deck 1 mass flow rate check value iteration history trace: 5.568378E-002,5.568378E-002,5.568378E-002,5.568378E-002,5.568378E-002,5.568378E-002,5.568378E-002,5.568378E-002,5.568378E-002,5.568378E-002,
   **   ~~~   ** Air System Named = CENTRAL SYSTEM did not converge for energy
   **   ~~~   ** Check values should be zero. Most Recent values listed first.
   **   ~~~   ** Demand-to-Supply interface energy check value iteration history trace: 1101.971410,1101.971410,1101.971410,1101.971410,1101.971410,1101.971409,1101.971409,1101.971409,1101.971409,1101.971409,
   **   ~~~   ** Supply-to-demand interface deck 1 energy check value iteration history trace: 1712.281854,1712.281854,1712.281854,1712.281854,1712.281853,1712.281853,1712.281853,1712.281853,1712.281853,1712.281853,
   ** Warning ** SimHVAC: Maximum iterations (20) exceeded for all HVAC loops, at ANNUAL, 01/13 19:30 - 19:45
   **   ~~~   ** The solution for one or more of the Air Loop HVAC systems did not appear to converge
   **   ~~~   ** Air System Named = CENTRAL SYSTEM did not converge for mass flow rate
   **   ~~~   ** Check values should be zero. Most Recent values listed first.
   **   ~~~   ** Demand-to-Supply interface mass flow rate check value iteration history trace: 5.733113E-002,5.733113E-002,5.733113E-002,5.733113E-002,5.733113E-002,5.733113E-002,5.733113E-002,5.733113E-002,5.733113E-002,5.733113E-002,
   **   ~~~   ** Supply-to-demand interface deck 1 mass flow rate check value iteration history trace: 5.733113E-002,5.733113E-002,5.733113E-002,5.733113E-002,5.733113E-002,5.733113E-002,5.733113E-002,5.733113E-002,5.733113E-002,5.733113E-002,
   **   ~~~   ** Air System Named = CENTRAL SYSTEM did not converge for energy
   **   ~~~   ** Check values should be zero. Most Recent values listed first.
   **   ~~~   ** Demand-to-Supply interface energy check value iteration history trace: 1135.093354,1135.093354,1135.093354,1135.093354,1135.093354,1135.093353,1135.093353,1135.093353,1135.093353,1135.093353,
   **   ~~~   ** Supply-to-demand interface deck 1 energy check value iteration history trace: 1925.080539,1925.080539,1925.080539,1925.080539,1925.080539,1925.080538,1925.080538,1925.080538,1925.080538,1925.080538,
   ** Warning ** SimHVAC: Maximum iterations (20) exceeded for all HVAC loops, at ANNUAL, 01/18 00:23 - 00:30
   **   ~~~   ** The solution for one or more of the Air Loop HVAC systems did not appear to converge
   **   ~~~   ** Air System Named = CENTRAL SYSTEM did not converge for mass flow rate
   **   ~~~   ** Check values should be zero. Most Recent values listed first.
   **   ~~~   ** Demand-to-Supply interface mass flow rate check value iteration history trace: 5.468699E-002,5.468699E-002,5.468699E-002,5.468699E-002,5.468699E-002,5.468699E-002,5.468699E-002,5.468699E-002,5.468699E-002,5.468699E-002,
   **   ~~~   ** Supply-to-demand interface deck 1 mass flow rate check value iteration history trace: 5.468699E-002,5.468699E-002,5.468699E-002,5.468699E-002,5.468699E-002,5.468699E-002,5.468699E-002,5.468699E-002,5.468699E-002,5.468699E-002,
   **   ~~~   ** Air System Named = CENTRAL SYSTEM did not converge for energy
   **   ~~~   ** Check values should be zero. Most Recent values listed first.
   **   ~~~   ** Demand-to-Supply interface energy check value iteration history trace: 1032.252403,1032.252403,1032.252403,1032.252402,1032.252402,1032.252402,1032.252402,1032.252402,1032.252402,1032.252402,
   **   ~~~   ** Supply-to-demand interface deck 1 energy check value iteration history trace: 1777.546400,1777.546400,1777.546400,1777.546400,1777.546400,1777.546399,1777.546399,1777.546399,1777.546399,1777.546399,
   ** Warning ** SimHVAC: Maximum iterations (20) exceeded for all HVAC loops, at ANNUAL, 01/18 10:02 - 10:05
   **   ~~~   ** The solution for one or more of the Air Loop HVAC systems did not appear to converge
   **   ~~~   ** Air System Named = CENTRAL SYSTEM did not converge for mass flow rate
   **   ~~~   ** Check values should be zero. Most Recent values listed first.
   **   ~~~   ** Demand-to-Supply interface mass flow rate check value iteration history trace: 4.593023E-002,4.593023E-002,4.593023E-002,4.593023E-002,4.593023E-002,4.593023E-002,4.593023E-002,4.593023E-002,4.593023E-002,4.593023E-002,
   **   ~~~   ** Supply-to-demand interface deck 1 mass flow rate check value iteration history trace: 4.593023E-002,4.593023E-002,4.593023E-002,4.593023E-002,4.593023E-002,4.593023E-002,4.593023E-002,4.593023E-002,4.593023E-002,4.593023E-002,
   **   ~~~   ** Air System Named = CENTRAL SYSTEM did not converge for energy
   **   ~~~   ** Check values should be zero. Most Recent values listed first.
   **   ~~~   ** Demand-to-Supply interface energy check value iteration history trace: 910.213878,910.213878,910.213878,910.213878,910.213878,910.213878,910.213878,910.213878,910.213878,910.213878,
   **   ~~~   ** Supply-to-demand interface deck 1 energy check value iteration history trace: 1689.621626,1689.621626,1689.621626,1689.621626,1689.621626,1689.621626,1689.621626,1689.621626,1689.621626,1689.621626,
   ** Warning ** SimHVAC: Maximum iterations (20) exceeded for all HVAC loops, at ANNUAL, 02/19 09:51 - 09:52
   **   ~~~   ** The solution for one or more of the Air Loop HVAC systems did not appear to converge
   **   ~~~   ** Air System Named = CENTRAL SYSTEM did not converge for mass flow rate
   **   ~~~   ** Check values should be zero. Most Recent values listed first.
   **   ~~~   ** Demand-to-Supply interface mass flow rate check value iteration history trace: 3.419390E-002,3.419390E-002,3.419390E-002,3.419390E-002,3.419390E-002,3.419390E-002,3.419390E-002,3.419390E-002,3.419390E-002,3.419390E-002,
   **   ~~~   ** Supply-to-demand interface deck 1 mass flow rate check value iteration history trace: 3.419390E-002,3.419390E-002,3.419390E-002,3.419390E-002,3.419390E-002,3.419390E-002,3.419390E-002,3.419390E-002,3.419390E-002,3.419390E-002,
   **   ~~~   ** Air System Named = CENTRAL SYSTEM did not converge for energy
   **   ~~~   ** Check values should be zero. Most Recent values listed first.
   **   ~~~   ** Demand-to-Supply interface energy check value iteration history trace: 675.638493,675.638493,675.638493,675.638493,675.638493,675.638493,675.638493,675.638493,675.638493,675.638493,
   **   ~~~   ** Supply-to-demand interface deck 1 energy check value iteration history trace: 1277.660876,1277.660876,1277.660876,1277.660875,1277.660875,1277.660875,1277.660875,1277.660875,1277.660875,1277.660875,
   ** Warning ** Temperature out of range [-100. to 200.] (PsyPsatFnTemp)
   **   ~~~   **  Routine=PsyTwbFnTdbWPb, Environment=ANNUAL, at Simulation time=02/27 09:45 - 09:48
   **   ~~~   **  Input Temperature=-100.09
   ** Warning ** SimHVAC: Maximum iterations (20) exceeded for all HVAC loops, at ANNUAL, 03/06 09:45 - 09:47
   **   ~~~   ** The solution for one or more of the Air Loop HVAC systems did not appear to converge
   **   ~~~   ** Air System Named = CENTRAL SYSTEM did not converge for mass flow rate
   **   ~~~   ** Check values should be zero. Most Recent values listed first.
   **   ~~~   ** Demand-to-Supply interface mass flow rate check value iteration history trace: 4.819299E-002,4.819299E-002,4.819299E-002,4.819299E-002,4.819299E-002,4.819299E-002,4.819299E-002,4.819299E-002,4.819299E-002,4.819299E-002,
   **   ~~~   ** Supply-to-demand interface deck 1 mass flow rate check value iteration history trace: 4.819299E-002,4.819299E-002,4.819299E-002,4.819299E-002,4.819299E-002,4.819299E-002,4.819299E-002,4.819299E-002,4.819299E-002,4.819299E-002,
   **   ~~~   ** Air System Named = CENTRAL SYSTEM did not converge for energy
   **   ~~~   ** Check values should be zero. Most Recent values listed first.
   **   ~~~   ** Demand-to-Supply interface energy check value iteration history trace: 952.883373,952.883373,952.883373,952.883373,952.883373,952.883373,952.883373,952.883373,952.883372,952.883372,
   **   ~~~   ** Supply-to-demand interface deck 1 energy check value iteration history trace: 1622.278904,1622.278904,1622.278904,1622.278904,1622.278904,1622.278904,1622.278904,1622.278904,1622.278904,1622.278904,
   ** Warning ** SimHVAC: Maximum iterations (20) exceeded for all HVAC loops, at ANNUAL, 03/17 03:15 - 03:30
   **   ~~~   ** The solution for one or more of the Air Loop HVAC systems did not appear to converge
   **   ~~~   ** Air System Named = CENTRAL SYSTEM did not converge for mass flow rate
   **   ~~~   ** Check values should be zero. Most Recent values listed first.
   **   ~~~   ** Demand-to-Supply interface mass flow rate check value iteration history trace: 3.815444E-002,3.815444E-002,3.815444E-002,3.815444E-002,3.815444E-002,3.815444E-002,3.815444E-002,3.815444E-002,3.815444E-002,3.815444E-002,
   **   ~~~   ** Supply-to-demand interface deck 1 mass flow rate check value iteration history trace: 3.815444E-002,3.815444E-002,3.815444E-002,3.815444E-002,3.815444E-002,3.815444E-002,3.815444E-002,3.815444E-002,3.815444E-002,3.815444E-002,
   **   ~~~   ** Air System Named = CENTRAL SYSTEM did not converge for energy
   **   ~~~   ** Check values should be zero. Most Recent values listed first.
   **   ~~~   ** Demand-to-Supply interface energy check value iteration history trace: 711.557976,711.557976,711.557976,711.557976,711.557976,711.557976,711.557976,711.557976,711.557976,711.557976,
   **   ~~~   ** Supply-to-demand interface deck 1 energy check value iteration history trace: 1361.056981,1361.056981,1361.056981,1361.056981,1361.056981,1361.056981,1361.056981,1361.056981,1361.056981,1361.056981,
   ** Warning ** SimHVAC: Maximum iterations (20) exceeded for all HVAC loops, at ANNUAL, 04/24 07:15 - 07:19
   **   ~~~   ** The solution for one or more of the Air Loop HVAC systems did not appear to converge
   **   ~~~   ** Air System Named = CENTRAL SYSTEM did not converge for mass flow rate
   **   ~~~   ** Check values should be zero. Most Recent values listed first.
   **   ~~~   ** Demand-to-Supply interface mass flow rate check value iteration history trace: 5.242284E-002,5.242284E-002,5.242284E-002,5.242284E-002,5.242284E-002,5.242284E-002,5.242284E-002,5.242284E-002,5.242284E-002,5.242284E-002,
   **   ~~~   ** Supply-to-demand interface deck 1 mass flow rate check value iteration history trace: 5.242284E-002,5.242284E-002,5.242284E-002,5.242284E-002,5.242284E-002,5.242284E-002,5.242284E-002,5.242284E-002,5.242284E-002,5.242284E-002,
   **   ~~~   ** Air System Named = CENTRAL SYSTEM did not converge for energy
   **   ~~~   ** Check values should be zero. Most Recent values listed first.
   **   ~~~   ** Demand-to-Supply interface energy check value iteration history trace: 1036.296607,1036.296607,1036.296607,1036.296607,1036.296607,1036.296607,1036.296607,1036.296607,1036.296607,1036.296607,
   **   ~~~   ** Supply-to-demand interface deck 1 energy check value iteration history trace: 1997.970029,1997.970029,1997.970029,1997.970028,1997.970028,1997.970028,1997.970028,1997.970028,1997.970028,1997.970028,
   ** Warning ** SimHVAC: Maximum iterations (20) exceeded for all HVAC loops, at ANNUAL, 04/25 07:23 - 07:26
   **   ~~~   ** The solution for one or more of the Air Loop HVAC systems did not appear to converge
   **   ~~~   ** Air System Named = CENTRAL SYSTEM did not converge for mass flow rate
   **   ~~~   ** Check values should be zero. Most Recent values listed first.
   **   ~~~   ** Demand-to-Supply interface mass flow rate check value iteration history trace: 4.647929E-002,4.647929E-002,4.647929E-002,4.647929E-002,4.647929E-002,4.647929E-002,4.647929E-002,4.647929E-002,4.647929E-002,4.647929E-002,
   **   ~~~   ** Supply-to-demand interface deck 1 mass flow rate check value iteration history trace: 4.647929E-002,4.647929E-002,4.647929E-002,4.647929E-002,4.647929E-002,4.647929E-002,4.647929E-002,4.647929E-002,4.647929E-002,4.647929E-002,
   **   ~~~   ** Air System Named = CENTRAL SYSTEM did not converge for energy
   **   ~~~   ** Check values should be zero. Most Recent values listed first.
   **   ~~~   ** Demand-to-Supply interface energy check value iteration history trace: 914.526518,914.526518,914.526517,914.526517,914.526517,914.526517,914.526517,914.526517,914.526517,914.526517,
   **   ~~~   ** Supply-to-demand interface deck 1 energy check value iteration history trace: 1802.245234,1802.245234,1802.245234,1802.245234,1802.245234,1802.245234,1802.245234,1802.245234,1802.245234,1802.245234,
   ** Warning ** SimHVAC: Maximum iterations (20) exceeded for all HVAC loops, at ANNUAL, 04/27 17:00 - 17:15
   **   ~~~   ** The solution for one or more of the Air Loop HVAC systems did not appear to converge
   **   ~~~   ** Air System Named = CENTRAL SYSTEM did not converge for mass flow rate
   **   ~~~   ** Check values should be zero. Most Recent values listed first.
   **   ~~~   ** Demand-to-Supply interface mass flow rate check value iteration history trace: 4.033664E-002,4.033664E-002,4.033664E-002,4.033664E-002,4.033664E-002,4.033664E-002,4.033664E-002,4.033664E-002,4.033664E-002,4.033664E-002,
   **   ~~~   ** Supply-to-demand interface deck 1 mass flow rate check value iteration history trace: 4.033664E-002,4.033664E-002,4.033664E-002,4.033664E-002,4.033664E-002,4.033664E-002,4.033664E-002,4.033664E-002,4.033664E-002,4.033664E-002,
   **   ~~~   ** Air System Named = CENTRAL SYSTEM did not converge for energy
   **   ~~~   ** Check values should be zero. Most Recent values listed first.
   **   ~~~   ** Demand-to-Supply interface energy check value iteration history trace: 797.894722,797.894722,797.894722,797.894722,797.894722,797.894722,797.894722,797.894722,797.894722,797.894722,
   **   ~~~   ** Supply-to-demand interface deck 1 energy check value iteration history trace: 1473.376960,1473.376960,1473.376960,1473.376960,1473.376960,1473.376960,1473.376960,1473.376960,1473.376960,1473.376960,
   ** Warning ** SimHVAC: Maximum iterations (20) exceeded for all HVAC loops, at ANNUAL, 05/02 12:00 - 12:15
   **   ~~~   ** The solution for one or more of the Air Loop HVAC systems did not appear to converge
   **   ~~~   ** Air System Named = CENTRAL SYSTEM did not converge for mass flow rate
   **   ~~~   ** Check values should be zero. Most Recent values listed first.
   **   ~~~   ** Demand-to-Supply interface mass flow rate check value iteration history trace: 2.392691E-002,2.392691E-002,2.392691E-002,2.392691E-002,2.392691E-002,2.392691E-002,2.392691E-002,2.392691E-002,2.392691E-002,2.392691E-002,
   **   ~~~   ** Supply-to-demand interface deck 1 mass flow rate check value iteration history trace: 2.392691E-002,2.392691E-002,2.392691E-002,2.392691E-002,2.392691E-002,2.392691E-002,2.392691E-002,2.392691E-002,2.392691E-002,2.392691E-002,
   **   ~~~   ** Air System Named = CENTRAL SYSTEM did not converge for energy
   **   ~~~   ** Check values should be zero. Most Recent values listed first.
   **   ~~~   ** Demand-to-Supply interface energy check value iteration history trace: 474.150598,474.150598,474.150598,474.150598,474.150598,474.150598,474.150598,474.150598,474.150598,474.150598,
   **   ~~~   ** Supply-to-demand interface deck 1 energy check value iteration history trace: 884.000032,884.000032,884.000032,884.000032,884.000032,884.000032,884.000032,884.000032,884.000032,884.000032,
   ** Warning ** SimHVAC: Maximum iterations (20) exceeded for all HVAC loops, at ANNUAL, 05/04 07:55 - 07:58
   **   ~~~   ** The solution for one or more of the Air Loop HVAC systems did not appear to converge
   **   ~~~   ** Air System Named = CENTRAL SYSTEM did not converge for mass flow rate
   **   ~~~   ** Check values should be zero. Most Recent values listed first.
   **   ~~~   ** Demand-to-Supply interface mass flow rate check value iteration history trace: 4.882446E-002,4.882446E-002,4.882446E-002,4.882446E-002,4.882446E-002,4.882446E-002,4.882446E-002,4.882446E-002,4.882446E-002,4.882446E-002,
   **   ~~~   ** Supply-to-demand interface deck 1 mass flow rate check value iteration history trace: 4.882446E-002,4.882446E-002,4.882446E-002,4.882446E-002,4.882446E-002,4.882446E-002,4.882446E-002,4.882446E-002,4.882446E-002,4.882446E-002,
   **   ~~~   ** Air System Named = CENTRAL SYSTEM did not converge for energy
   **   ~~~   ** Check values should be zero. Most Recent values listed first.
   **   ~~~   ** Demand-to-Supply interface energy check value iteration history trace: 963.495908,963.495908,963.495908,963.495908,963.495908,963.495907,963.495907,963.495907,963.495907,963.495907,
   **   ~~~   ** Supply-to-demand interface deck 1 energy check value iteration history trace: 1850.980752,1850.980752,1850.980752,1850.980752,1850.980752,1850.980752,1850.980752,1850.980752,1850.980752,1850.980752,
   ** Warning ** SimHVAC: Maximum iterations (20) exceeded for all HVAC loops, at ANNUAL, 05/19 06:30 - 06:45
   **   ~~~   ** The solution for one or more of the Air Loop HVAC systems did not appear to converge
   **   ~~~   ** Air System Named = CENTRAL SYSTEM did not converge for mass flow rate
   **   ~~~   ** Check values should be zero. Most Recent values listed first.
   **   ~~~   ** Demand-to-Supply interface mass flow rate check value iteration history trace: 7.128068E-002,7.128068E-002,7.128068E-002,7.128068E-002,7.128068E-002,7.128068E-002,7.128068E-002,7.128068E-002,7.128068E-002,7.128068E-002,
   **   ~~~   ** Supply-to-demand interface deck 1 mass flow rate check value iteration history trace: 7.128068E-002,7.128068E-002,7.128068E-002,7.128068E-002,7.128068E-002,7.128068E-002,7.128068E-002,7.128068E-002,7.128068E-002,7.128068E-002,
   **   ~~~   ** Air System Named = CENTRAL SYSTEM did not converge for energy
   **   ~~~   ** Check values should be zero. Most Recent values listed first.
   **   ~~~   ** Demand-to-Supply interface energy check value iteration history trace: 1673.651363,1673.651363,1673.651364,1673.651364,1673.651364,1673.651364,1673.651364,1673.651364,1673.651364,1673.651364,
   **   ~~~   ** Supply-to-demand interface deck 1 energy check value iteration history trace: 553.166007,553.166007,553.166007,553.166007,553.166007,553.166007,553.166007,553.166008,553.166008,553.166008,
   ** Warning ** SimHVAC: Maximum iterations (20) exceeded for all HVAC loops, at ANNUAL, 05/22 06:00 - 06:15
   **   ~~~   ** The solution for one or more of the Air Loop HVAC systems did not appear to converge
   **   ~~~   ** Air System Named = CENTRAL SYSTEM did not converge for mass flow rate
   **   ~~~   ** Check values should be zero. Most Recent values listed first.
   **   ~~~   ** Demand-to-Supply interface mass flow rate check value iteration history trace: 5.081598E-002,5.081598E-002,5.081598E-002,5.081598E-002,5.081598E-002,5.081598E-002,5.081598E-002,5.081598E-002,5.081598E-002,5.081598E-002,
   **   ~~~   ** Supply-to-demand interface deck 1 mass flow rate check value iteration history trace: 5.081598E-002,5.081598E-002,5.081598E-002,5.081598E-002,5.081598E-002,5.081598E-002,5.081598E-002,5.081598E-002,5.081598E-002,5.081598E-002,
   **   ~~~   ** Air System Named = CENTRAL SYSTEM did not converge for energy
   **   ~~~   ** Check values should be zero. Most Recent values listed first.
   **   ~~~   ** Demand-to-Supply interface energy check value iteration history trace: 994.283524,994.283524,994.283524,994.283524,994.283524,994.283524,994.283524,994.283524,994.283524,994.283524,
   **   ~~~   ** Supply-to-demand interface deck 1 energy check value iteration history trace: 1879.826639,1879.826639,1879.826639,1879.826639,1879.826639,1879.826639,1879.826639,1879.826638,1879.826638,1879.826638,
   ************* Simulation Error Summary *************
   ** Warning ** The following Report Variables were requested but not generated -- check.rdd file
   **   ~~~   ** Either the IDF did not contain these elements, the variable name is misspelled,
   **   ~~~   ** or the requested variable is an advanced output which requires Output : Diagnostics, DisplayAdvancedReportVariables;
   ************* Key=*, VarName=BASEBOARD TOTAL HEATING ENERGY, Frequency=
   ************* Key=*, VarName=WATER HEATER NATURALGAS ENERGY, Frequency=
   ************* Key=*, VarName=COOLING COIL TOTAL HEATING ENERGY, Frequency=
   ************* There are 34 unused schedules in input.
   ************* There are 388 unused week schedules in input.
   ************* There are 396 unused day schedules in input.
   ************* Use Output:Diagnostics,DisplayUnusedSchedules; to see them.
   *************
   ************* ===== Recurring Error Summary =====
   ************* The following recurring error messages occurred.
   *************
   *************  ** Warning ** "TOTAL HOT WATER LOAD" - Target water temperature should be less than or equal to the hot water temperature error continues...
   *************  **   ~~~   **   This error occurred 68797 total times;
   *************  **   ~~~   **   during Warmup 0 times;
   *************  **   ~~~   **   during Sizing 0 times.
   *************  **   ~~~   **   Max=6.647809  Min=1.849131E-004
   *************
   *************  ** Warning ** Temperature out of range [-100. to 200.] (PsyPsatFnTemp)
   *************  **   ~~~   **   This error occurred 1 total times;
   *************  **   ~~~   **   during Warmup 0 times;
   *************  **   ~~~   **   during Sizing 0 times.
   *************  **   ~~~   **   Max=-100.095058 C  Min=-100.095058 C
   *************
   *************  ** Warning ** SimHVAC: Exceeding Maximum iterations for all HVAC loops, during ANNUAL continues
   *************  **   ~~~   **   This error occurred 8 total times;
   *************  **   ~~~   **   during Warmup 0 times;
   *************  **   ~~~   **   during Sizing 0 times.
   *************
   *************
   ************* ===== Final Error Summary =====
   ************* The following error categories occurred.  Consider correcting or noting.
   ************* Nominally Unused Constructions
   ************* ..The nominally unused constructions warning is provided to alert you to potential conditions that can cause
   ************* ..extra time during simulation. Each construction is calculated by the algorithm indicated in the HeatBalanceAlgorithm
   ************* ..object. You may remove the constructions indicated (when you use the DisplayExtraWarnings option).
   *************
   ************* EnergyPlus Warmup Error Summary. During Warmup: 1 Warning; 0 Severe Errors.
   ************* EnergyPlus Sizing Error Summary. During Sizing: 4 Warning; 0 Severe Errors.
   ************* EnergyPlus Completed Successfully-- 68839 Warning; 0 Severe Errors; Elapsed Time=00hr 01min 48.00sec
