Program Version,EnergyPlus, Version 22.2.0-c249759bad, YMD=2023.09.01 14:56,
   ************* Beginning Zone Sizing Calculations
   ** Warning ** ProcessScheduleInput: Schedule:Constant="ALWAYS ON DISCRETE", Schedule Type Limits Name="ONOFF" not found -- will not be validated
   ** Warning ** Foundation:Kiva="KIVA FOUNDATION", no Interior Horizontal Insulation Material Name defined
   **   ~~~   ** Interior Horizontal Insulation Depth will not be used.
   ** Warning ** CheckUsedConstructions: There are 15 nominally unused constructions in input.
   **   ~~~   ** Each Unused construction is shown.
   ************* Construction=INTERIOR FLOOR
   ************* Construction=INTERIOR WINDOW
   ************* Construction=EXTERIOR DOOR
   ************* Construction=INTERIOR DOOR
   ************* Construction=GABLE CONSTRUCTION
   ************* Construction=CRAWL_FLOOR
   ************* Construction=INSULATED PIPE
   ************* Construction=PLAIN PIPE
   ************* Construction=TDD PIPE
   ************* Construction=TDD DOME
   ************* Construction=TDD DIFFUSER
   ************* Construction=CRAWL WALL
   ************* Construction=CEILING-FLOOR-LAYER
   ************* Construction=SLAB CONSTRUCTION W FULL R10 INSULATION
   ************* Construction=SLAB CONSTRUCTION W FULL R5 INSULATION
   ** Warning ** GetDXCoils: Coil:Heating:DX:SingleSpeed="DX_HEATING_COIL" curve values
   **   ~~~   ** ... Defrost Energy Input Ratio Function of Temperature Curve Name = DEFROSTEIR output is not equal to 1.0 (+ or - 10%) at rated conditions.
   **   ~~~   ** ... Curve output at rated conditions = 0.152
   ************* Beginning System Sizing Calculations
   ************* Beginning Plant Sizing Calculations
   ** Warning ** Coil:WaterHeating:AirToWaterHeatPump:Wrapped "HEAT PUMP WATER HEATER EVAPORATOR": Rated air volume flow rate per watt of rated total water heating capacity is out of range
   **   ~~~   ** Min Rated Vol Flow Per Watt=[4.027E-005], Rated Vol Flow Per Watt=[1.386E-004], Max Rated Vol Flow Per Watt=[8.056E-005]. See Input-Output Reference Manual for valid range.
   ** Warning ** Water heater = WATER HEATER TANK:  Recovery Efficiency and Energy Factor could not be calculated during the test for standard ratings
   **   ~~~   ** Setpoint was never recovered and/or heater never turned on
   ** Warning ** Check input. Pump nominal power or motor efficiency is set to 0, for pump=MAINS PRESSURE
   ** Warning ** Output:Meter: invalid Key Name="ELECTRIC_RANGE:INTERIOREQUIPMENT:ELECTRICITY" - not found.
   ** Warning ** Output:Meter: invalid Key Name="ELECTRIC_DRYER:INTERIOREQUIPMENT:ELECTRICITY" - not found.
   ** Warning ** Output:Meter: invalid Key Name="HEATRECOVERY:ELECTRICITY" - not found.
   ** Warning ** Output:Meter: invalid Key Name="HEATING:NATURALGAS" - not found.
   ** Warning ** Output:Meter: invalid Key Name="WATERSYSTEMS:NATURALGAS" - not found.
   ** Warning ** Output:Meter: invalid Key Name="PROPANE:FACILITY" - not found.
   ** Warning ** Output:Meter: invalid Key Name="HEATING:PROPANE" - not found.
   ************* Testing Individual Branch Integrity
   ************* All Branches passed integrity testing
   ************* Testing Individual Supply Air Path Integrity
   ************* All Supply Air Paths passed integrity testing
   ************* Testing Individual Return Air Path Integrity
   ************* All Return Air Paths passed integrity testing
   ************* No node connection errors were found.
   ************* Beginning Simulation
   ** Warning ** AirflowNetwork::Solver::validate_distribution: Heat pump water heater is simulated along with an AirflowNetwork but is not included in the AirflowNetwork.
   ** Warning ** CalcEquipmentFlowRates: "TOTAL HOT WATER LOAD" - Target water temperature is greater than the hot water temperature by (1.69 C)
   **   ~~~   **  Environment=EXTREME_WINTER, at Simulation time=01/29 06:00 - 06:15
   **   ~~~   ** ...target water temperature     = 53.33 C
   **   ~~~   ** ...hot water temperature        = 51.64 C
   **   ~~~   ** ...Target water temperature should be less than or equal to the hot water temperature. Verify temperature setpoints and schedules.
   ** Warning ** SimHVAC: Maximum iterations (20) exceeded for all HVAC loops, at ANNUAL, 01/13 23:45 - 24:00
   **   ~~~   ** The solution for one or more of the Air Loop HVAC systems did not appear to converge
   **   ~~~   ** Air System Named = CENTRAL SYSTEM did not converge for mass flow rate
   **   ~~~   ** Check values should be zero. Most Recent values listed first.
   **   ~~~   ** Demand-to-Supply interface mass flow rate check value iteration history trace: 9.873260E-002,9.873260E-002,9.873260E-002,9.873260E-002,9.873260E-002,9.873260E-002,9.873260E-002,9.873260E-002,9.873260E-002,9.873260E-002,
   **   ~~~   ** Supply-to-demand interface deck 1 mass flow rate check value iteration history trace: 9.873260E-002,9.873260E-002,9.873260E-002,9.873260E-002,9.873260E-002,9.873260E-002,9.873260E-002,9.873260E-002,9.873260E-002,9.873260E-002,
   **   ~~~   ** Air System Named = CENTRAL SYSTEM did not converge for energy
   **   ~~~   ** Check values should be zero. Most Recent values listed first.
   **   ~~~   ** Demand-to-Supply interface energy check value iteration history trace: 1845.193189,1845.193189,1845.193189,1845.193189,1845.193189,1845.193189,1845.193189,1845.193189,1845.193189,1845.193188,
   **   ~~~   ** Supply-to-demand interface deck 1 energy check value iteration history trace: 2825.485965,2825.485965,2825.485965,2825.485965,2825.485965,2825.485965,2825.485965,2825.485964,2825.485964,2825.485964,
   ** Warning ** SimHVAC: Maximum iterations (20) exceeded for all HVAC loops, at ANNUAL, 02/02 17:19 - 17:22
   **   ~~~   ** The solution for one or more of the Air Loop HVAC systems did not appear to converge
   **   ~~~   ** Air System Named = CENTRAL SYSTEM did not converge for mass flow rate
   **   ~~~   ** Check values should be zero. Most Recent values listed first.
   **   ~~~   ** Demand-to-Supply interface mass flow rate check value iteration history trace: 9.001045E-002,9.001045E-002,9.001045E-002,9.001045E-002,9.001045E-002,9.001045E-002,9.001045E-002,9.001045E-002,9.001045E-002,9.001045E-002,
   **   ~~~   ** Supply-to-demand interface deck 1 mass flow rate check value iteration history trace: 9.001045E-002,9.001045E-002,9.001045E-002,9.001045E-002,9.001045E-002,9.001045E-002,9.001045E-002,9.001045E-002,9.001045E-002,9.001045E-002,
   **   ~~~   ** Air System Named = CENTRAL SYSTEM did not converge for energy
   **   ~~~   ** Check values should be zero. Most Recent values listed first.
   **   ~~~   ** Demand-to-Supply interface energy check value iteration history trace: 1775.537280,1775.537280,1775.537279,1775.537279,1775.537279,1775.537279,1775.537279,1775.537279,1775.537279,1775.537279,
   **   ~~~   ** Supply-to-demand interface deck 1 energy check value iteration history trace: 2696.733542,2696.733542,2696.733541,2696.733541,2696.733541,2696.733541,2696.733541,2696.733540,2696.733540,2696.733540,
   ** Warning ** SimHVAC: Maximum iterations (20) exceeded for all HVAC loops, at ANNUAL, 02/05 12:15 - 12:19
   **   ~~~   ** The solution for one or more of the Air Loop HVAC systems did not appear to converge
   **   ~~~   ** Air System Named = CENTRAL SYSTEM did not converge for mass flow rate
   **   ~~~   ** Check values should be zero. Most Recent values listed first.
   **   ~~~   ** Demand-to-Supply interface mass flow rate check value iteration history trace: 7.439382E-002,7.439382E-002,7.439382E-002,7.439382E-002,7.439382E-002,7.439382E-002,7.439382E-002,7.439382E-002,7.439382E-002,7.439382E-002,
   **   ~~~   ** Supply-to-demand interface deck 1 mass flow rate check value iteration history trace: 7.439382E-002,7.439382E-002,7.439382E-002,7.439382E-002,7.439382E-002,7.439382E-002,7.439382E-002,7.439382E-002,7.439382E-002,7.439382E-002,
   **   ~~~   ** Air System Named = CENTRAL SYSTEM did not converge for energy
   **   ~~~   ** Check values should be zero. Most Recent values listed first.
   **   ~~~   ** Demand-to-Supply interface energy check value iteration history trace: 1467.303586,1467.303586,1467.303586,1467.303586,1467.303586,1467.303586,1467.303586,1467.303586,1467.303586,1467.303585,
   **   ~~~   ** Supply-to-demand interface deck 1 energy check value iteration history trace: 2319.477315,2319.477315,2319.477315,2319.477314,2319.477314,2319.477314,2319.477314,2319.477314,2319.477314,2319.477314,
   ** Warning ** SimHVAC: Maximum iterations (20) exceeded for all HVAC loops, at ANNUAL, 10/24 07:45 - 07:48
   **   ~~~   ** The solution for one or more of the Air Loop HVAC systems did not appear to converge
   **   ~~~   ** Air System Named = CENTRAL SYSTEM did not converge for mass flow rate
   **   ~~~   ** Check values should be zero. Most Recent values listed first.
   **   ~~~   ** Demand-to-Supply interface mass flow rate check value iteration history trace: 6.809503E-002,6.809503E-002,6.809503E-002,6.809503E-002,6.809503E-002,6.809503E-002,6.809503E-002,6.809503E-002,6.809503E-002,6.809503E-002,
   **   ~~~   ** Supply-to-demand interface deck 1 mass flow rate check value iteration history trace: 6.809503E-002,6.809503E-002,6.809503E-002,6.809503E-002,6.809503E-002,6.809503E-002,6.809503E-002,6.809503E-002,6.809503E-002,6.809503E-002,
   **   ~~~   ** Air System Named = CENTRAL SYSTEM did not converge for energy
   **   ~~~   ** Check values should be zero. Most Recent values listed first.
   **   ~~~   ** Demand-to-Supply interface energy check value iteration history trace: 1342.127097,1342.127097,1342.127097,1342.127097,1342.127097,1342.127097,1342.127097,1342.127097,1342.127097,1342.127097,
   **   ~~~   ** Supply-to-demand interface deck 1 energy check value iteration history trace: 2377.236851,2377.236851,2377.236850,2377.236850,2377.236850,2377.236850,2377.236850,2377.236850,2377.236850,2377.236850,
   ** Warning ** SimHVAC: Maximum iterations (20) exceeded for all HVAC loops, at ANNUAL, 11/22 07:15 - 07:30
   **   ~~~   ** The solution for one or more of the Air Loop HVAC systems did not appear to converge
   **   ~~~   ** Air System Named = CENTRAL SYSTEM did not converge for mass flow rate
   **   ~~~   ** Check values should be zero. Most Recent values listed first.
   **   ~~~   ** Demand-to-Supply interface mass flow rate check value iteration history trace: 6.188804E-002,6.188804E-002,6.188804E-002,6.188804E-002,6.188804E-002,6.188804E-002,6.188804E-002,6.188804E-002,6.188804E-002,6.188804E-002,
   **   ~~~   ** Supply-to-demand interface deck 1 mass flow rate check value iteration history trace: 6.188804E-002,6.188804E-002,6.188804E-002,6.188804E-002,6.188804E-002,6.188804E-002,6.188804E-002,6.188804E-002,6.188804E-002,6.188804E-002,
   **   ~~~   ** Air System Named = CENTRAL SYSTEM did not converge for energy
   **   ~~~   ** Check values should be zero. Most Recent values listed first.
   **   ~~~   ** Demand-to-Supply interface energy check value iteration history trace: 1215.722168,1215.722168,1215.722168,1215.722167,1215.722167,1215.722167,1215.722167,1215.722167,1215.722167,1215.722167,
   **   ~~~   ** Supply-to-demand interface deck 1 energy check value iteration history trace: 2198.356557,2198.356557,2198.356557,2198.356557,2198.356557,2198.356557,2198.356557,2198.356557,2198.356557,2198.356556,
   ** Warning ** SimHVAC: Maximum iterations (20) exceeded for all HVAC loops, at ANNUAL, 11/22 21:00 - 21:15
   **   ~~~   ** The solution for one or more of the Air Loop HVAC systems did not appear to converge
   **   ~~~   ** Air System Named = CENTRAL SYSTEM did not converge for mass flow rate
   **   ~~~   ** Check values should be zero. Most Recent values listed first.
   **   ~~~   ** Demand-to-Supply interface mass flow rate check value iteration history trace: 0.107792,0.107792,0.107792,0.107792,0.107792,0.107792,0.107792,0.107792,0.107792,0.107792,
   **   ~~~   ** Supply-to-demand interface deck 1 mass flow rate check value iteration history trace: 0.107792,0.107792,0.107792,0.107792,0.107792,0.107792,0.107792,0.107792,0.107792,0.107792,
   **   ~~~   ** Air System Named = CENTRAL SYSTEM did not converge for energy
   **   ~~~   ** Check values should be zero. Most Recent values listed first.
   **   ~~~   ** Demand-to-Supply interface energy check value iteration history trace: 2575.294962,2575.294962,2575.294963,2575.294963,2575.294963,2575.294963,2575.294964,2575.294964,2575.294964,2575.294964,
   **   ~~~   ** Supply-to-demand interface deck 1 energy check value iteration history trace: 1209.937948,1209.937948,1209.937948,1209.937948,1209.937948,1209.937948,1209.937948,1209.937948,1209.937948,1209.937949,
   ** Warning ** SimHVAC: Maximum iterations (20) exceeded for all HVAC loops, at ANNUAL, 11/25 19:45 - 20:00
   **   ~~~   ** The solution for one or more of the Air Loop HVAC systems did not appear to converge
   **   ~~~   ** Air System Named = CENTRAL SYSTEM did not converge for mass flow rate
   **   ~~~   ** Check values should be zero. Most Recent values listed first.
   **   ~~~   ** Demand-to-Supply interface mass flow rate check value iteration history trace: 5.822303E-002,5.822303E-002,5.822303E-002,5.822303E-002,5.822303E-002,5.822303E-002,5.822303E-002,5.822303E-002,5.822303E-002,5.822303E-002,
   **   ~~~   ** Supply-to-demand interface deck 1 mass flow rate check value iteration history trace: 5.822303E-002,5.822303E-002,5.822303E-002,5.822303E-002,5.822303E-002,5.822303E-002,5.822303E-002,5.822303E-002,5.822303E-002,5.822303E-002,
   **   ~~~   ** Air System Named = CENTRAL SYSTEM did not converge for energy
   **   ~~~   ** Check values should be zero. Most Recent values listed first.
   **   ~~~   ** Demand-to-Supply interface energy check value iteration history trace: 1370.322532,1370.322533,1370.322533,1370.322533,1370.322533,1370.322533,1370.322533,1370.322533,1370.322533,1370.322533,
   **   ~~~   ** Supply-to-demand interface deck 1 energy check value iteration history trace: 527.719192,527.719192,527.719192,527.719192,527.719192,527.719192,527.719192,527.719192,527.719192,527.719192,
   ** Warning ** SimHVAC: Maximum iterations (20) exceeded for all HVAC loops, at ANNUAL, 12/16 10:00 - 10:15
   **   ~~~   ** The solution for one or more of the Air Loop HVAC systems did not appear to converge
   **   ~~~   ** Air System Named = CENTRAL SYSTEM did not converge for mass flow rate
   **   ~~~   ** Check values should be zero. Most Recent values listed first.
   **   ~~~   ** Demand-to-Supply interface mass flow rate check value iteration history trace: 9.954123E-002,9.954123E-002,9.954123E-002,9.954123E-002,9.954123E-002,9.954123E-002,9.954123E-002,9.954123E-002,9.954123E-002,9.954123E-002,
   **   ~~~   ** Supply-to-demand interface deck 1 mass flow rate check value iteration history trace: 9.954123E-002,9.954123E-002,9.954123E-002,9.954123E-002,9.954123E-002,9.954123E-002,9.954123E-002,9.954123E-002,9.954123E-002,9.954123E-002,
   **   ~~~   ** Air System Named = CENTRAL SYSTEM did not converge for energy
   **   ~~~   ** Check values should be zero. Most Recent values listed first.
   **   ~~~   ** Demand-to-Supply interface energy check value iteration history trace: 1972.539948,1972.539948,1972.539948,1972.539948,1972.539948,1972.539948,1972.539948,1972.539948,1972.539947,1972.539947,
   **   ~~~   ** Supply-to-demand interface deck 1 energy check value iteration history trace: 3027.915745,3027.915745,3027.915744,3027.915744,3027.915744,3027.915744,3027.915744,3027.915743,3027.915743,3027.915743,
   ** Warning ** SimHVAC: Maximum iterations (20) exceeded for all HVAC loops, at ANNUAL, 12/23 10:06 - 10:09
   **   ~~~   ** The solution for one or more of the Air Loop HVAC systems did not appear to converge
   **   ~~~   ** Air System Named = CENTRAL SYSTEM did not converge for mass flow rate
   **   ~~~   ** Check values should be zero. Most Recent values listed first.
   **   ~~~   ** Demand-to-Supply interface mass flow rate check value iteration history trace: 9.639752E-002,9.639752E-002,9.639752E-002,9.639752E-002,9.639752E-002,9.639752E-002,9.639752E-002,9.639752E-002,9.639752E-002,9.639752E-002,
   **   ~~~   ** Supply-to-demand interface deck 1 mass flow rate check value iteration history trace: 9.639752E-002,9.639752E-002,9.639752E-002,9.639752E-002,9.639752E-002,9.639752E-002,9.639752E-002,9.639752E-002,9.639752E-002,9.639752E-002,
   **   ~~~   ** Air System Named = CENTRAL SYSTEM did not converge for energy
   **   ~~~   ** Check values should be zero. Most Recent values listed first.
   **   ~~~   ** Demand-to-Supply interface energy check value iteration history trace: 1907.820066,1907.820066,1907.820066,1907.820066,1907.820065,1907.820065,1907.820065,1907.820065,1907.820065,1907.820065,
   **   ~~~   ** Supply-to-demand interface deck 1 energy check value iteration history trace: 2957.294805,2957.294804,2957.294804,2957.294804,2957.294804,2957.294804,2957.294803,2957.294803,2957.294803,2957.294803,
   ************* Simulation Error Summary *************
   ** Warning ** The following Report Variables were requested but not generated -- check.rdd file
   **   ~~~   ** Either the IDF did not contain these elements, the variable name is misspelled,
   **   ~~~   ** or the requested variable is an advanced output which requires Output : Diagnostics, DisplayAdvancedReportVariables;
   ************* Key=*, VarName=BASEBOARD TOTAL HEATING ENERGY, Frequency=
   ************* Key=*, VarName=WATER HEATER NATURALGAS ENERGY, Frequency=
   ************* Key=*, VarName=COOLING COIL TOTAL HEATING ENERGY, Frequency=
   ************* There are 34 unused schedules in input.
   ************* There are 388 unused week schedules in input.
   ************* There are 396 unused day schedules in input.
   ************* Use Output:Diagnostics,DisplayUnusedSchedules; to see them.
   *************
   ************* ===== Recurring Error Summary =====
   ************* The following recurring error messages occurred.
   *************
   *************  ** Warning ** "TOTAL HOT WATER LOAD" - Target water temperature should be less than or equal to the hot water temperature error continues...
   *************  **   ~~~   **   This error occurred 118789 total times;
   *************  **   ~~~   **   during Warmup 0 times;
   *************  **   ~~~   **   during Sizing 0 times.
   *************  **   ~~~   **   Max=8.252698  Min=1.145346E-004
   *************
   *************
   ************* ===== Final Error Summary =====
   ************* The following error categories occurred.  Consider correcting or noting.
   ************* Nominally Unused Constructions
   ************* ..The nominally unused constructions warning is provided to alert you to potential conditions that can cause
   ************* ..extra time during simulation. Each construction is calculated by the algorithm indicated in the HeatBalanceAlgorithm
   ************* ..object. You may remove the constructions indicated (when you use the DisplayExtraWarnings option).
   *************
   ************* EnergyPlus Warmup Error Summary. During Warmup: 1 Warning; 0 Severe Errors.
   ************* EnergyPlus Sizing Error Summary. During Sizing: 4 Warning; 0 Severe Errors.
   ************* EnergyPlus Completed Successfully-- 118815 Warning; 0 Severe Errors; Elapsed Time=00hr 05min 42.29sec
