Program Version,EnergyPlus, Version 22.2.0-c249759bad, YMD=2023.09.01 20:08,
   ************* Beginning Zone Sizing Calculations
   ** Warning ** ProcessScheduleInput: Schedule:Constant="ALWAYS ON DISCRETE", Schedule Type Limits Name="ONOFF" not found -- will not be validated
   ** Warning ** Foundation:Kiva="KIVA FOUNDATION", no Interior Horizontal Insulation Material Name defined
   **   ~~~   ** Interior Horizontal Insulation Depth will not be used.
   ** Warning ** CheckUsedConstructions: There are 15 nominally unused constructions in input.
   **   ~~~   ** Each Unused construction is shown.
   ************* Construction=INTERIOR FLOOR
   ************* Construction=INTERIOR WINDOW
   ************* Construction=EXTERIOR DOOR
   ************* Construction=INTERIOR DOOR
   ************* Construction=GABLE CONSTRUCTION
   ************* Construction=CRAWL_FLOOR
   ************* Construction=INSULATED PIPE
   ************* Construction=PLAIN PIPE
   ************* Construction=TDD PIPE
   ************* Construction=TDD DOME
   ************* Construction=TDD DIFFUSER
   ************* Construction=CRAWL WALL
   ************* Construction=CEILING-FLOOR-LAYER
   ************* Construction=SLAB CONSTRUCTION W FULL R10 INSULATION
   ************* Construction=SLAB CONSTRUCTION W FULL R5 INSULATION
   ** Warning ** GetDXCoils: Coil:Heating:DX:SingleSpeed="DX_HEATING_COIL" curve values
   **   ~~~   ** ... Defrost Energy Input Ratio Function of Temperature Curve Name = DEFROSTEIR output is not equal to 1.0 (+ or - 10%) at rated conditions.
   **   ~~~   ** ... Curve output at rated conditions = 0.152
   ************* Beginning System Sizing Calculations
   ************* Beginning Plant Sizing Calculations
   ** Warning ** Coil:WaterHeating:AirToWaterHeatPump:Wrapped "HEAT PUMP WATER HEATER EVAPORATOR": Rated air volume flow rate per watt of rated total water heating capacity is out of range
   **   ~~~   ** Min Rated Vol Flow Per Watt=[4.027E-005], Rated Vol Flow Per Watt=[1.510E-004], Max Rated Vol Flow Per Watt=[8.056E-005]. See Input-Output Reference Manual for valid range.
   ************* SizeFan: : Potential issue with equipment sizing for Fan:OnOff HEAT PUMP WATER HEATER FAN
   **   ~~~   ** User-Specified Maximum Flow Rate [m3/s] = 0.22653
   **   ~~~   ** differs from Design Size Maximum Flow Rate [m3/s] = 7.55250E-002
   **   ~~~   ** This may, or may not, indicate mismatched component sizes.
   **   ~~~   ** Verify that the value entered is intended and is consistent with other components.
   ** Warning ** Water heater = WATER HEATER TANK:  Recovery Efficiency and Energy Factor could not be calculated during the test for standard ratings
   **   ~~~   ** Setpoint was never recovered and/or heater never turned on
   ** Warning ** Check input. Pump nominal power or motor efficiency is set to 0, for pump=MAINS PRESSURE
   ** Warning ** Output:Meter: invalid Key Name="ELECTRIC_RANGE:INTERIOREQUIPMENT:ELECTRICITY" - not found.
   ** Warning ** Output:Meter: invalid Key Name="ELECTRIC_DRYER:INTERIOREQUIPMENT:ELECTRICITY" - not found.
   ** Warning ** Output:Meter: invalid Key Name="HEATRECOVERY:ELECTRICITY" - not found.
   ** Warning ** Output:Meter: invalid Key Name="HEATING:NATURALGAS" - not found.
   ** Warning ** Output:Meter: invalid Key Name="WATERSYSTEMS:NATURALGAS" - not found.
   ** Warning ** Output:Meter: invalid Key Name="PROPANE:FACILITY" - not found.
   ** Warning ** Output:Meter: invalid Key Name="HEATING:PROPANE" - not found.
   ************* Testing Individual Branch Integrity
   ************* All Branches passed integrity testing
   ************* Testing Individual Supply Air Path Integrity
   ************* All Supply Air Paths passed integrity testing
   ************* Testing Individual Return Air Path Integrity
   ************* All Return Air Paths passed integrity testing
   ************* No node connection errors were found.
   ************* Beginning Simulation
   ** Warning ** AirflowNetwork::Solver::validate_distribution: Heat pump water heater is simulated along with an AirflowNetwork but is not included in the AirflowNetwork.
   ** Warning ** CalcEquipmentFlowRates: "TOTAL HOT WATER LOAD" - Target water temperature is greater than the hot water temperature by (3.69 C)
   **   ~~~   **  Environment=EXTREME_WINTER, at Simulation time=01/20 07:00 - 07:15
   **   ~~~   ** ...target water temperature     = 53.33 C
   **   ~~~   ** ...hot water temperature        = 49.65 C
   **   ~~~   ** ...Target water temperature should be less than or equal to the hot water temperature. Verify temperature setpoints and schedules.
   ** Warning ** SimHVAC: Maximum iterations (20) exceeded for all HVAC loops, at ANNUAL, 01/12 12:27 - 12:30
   **   ~~~   ** The solution for one or more of the Air Loop HVAC systems did not appear to converge
   **   ~~~   ** Air System Named = CENTRAL SYSTEM did not converge for mass flow rate
   **   ~~~   ** Check values should be zero. Most Recent values listed first.
   **   ~~~   ** Demand-to-Supply interface mass flow rate check value iteration history trace: 6.132155E-002,6.132155E-002,6.132155E-002,6.132155E-002,6.132155E-002,6.132155E-002,6.132155E-002,6.132155E-002,6.132155E-002,6.132155E-002,
   **   ~~~   ** Supply-to-demand interface deck 1 mass flow rate check value iteration history trace: 6.132155E-002,6.132155E-002,6.132155E-002,6.132155E-002,6.132155E-002,6.132155E-002,6.132155E-002,6.132155E-002,6.132155E-002,6.132155E-002,
   **   ~~~   ** Air System Named = CENTRAL SYSTEM did not converge for energy
   **   ~~~   ** Check values should be zero. Most Recent values listed first.
   **   ~~~   ** Demand-to-Supply interface energy check value iteration history trace: 1211.187664,1211.187664,1211.187664,1211.187664,1211.187664,1211.187664,1211.187664,1211.187664,1211.187664,1211.187664,
   **   ~~~   ** Supply-to-demand interface deck 1 energy check value iteration history trace: 2149.196668,2149.196668,2149.196668,2149.196668,2149.196668,2149.196668,2149.196668,2149.196668,2149.196668,2149.196668,
   ** Warning ** SimHVAC: Maximum iterations (20) exceeded for all HVAC loops, at ANNUAL, 01/12 21:30 - 21:45
   **   ~~~   ** The solution for one or more of the Air Loop HVAC systems did not appear to converge
   **   ~~~   ** Air System Named = CENTRAL SYSTEM did not converge for mass flow rate
   **   ~~~   ** Check values should be zero. Most Recent values listed first.
   **   ~~~   ** Demand-to-Supply interface mass flow rate check value iteration history trace: 9.521120E-002,9.521120E-002,9.521120E-002,9.521120E-002,9.521120E-002,9.521120E-002,9.521120E-002,9.521120E-002,9.521120E-002,9.521120E-002,
   **   ~~~   ** Supply-to-demand interface deck 1 mass flow rate check value iteration history trace: 9.521120E-002,9.521120E-002,9.521120E-002,9.521120E-002,9.521120E-002,9.521120E-002,9.521120E-002,9.521120E-002,9.521120E-002,9.521120E-002,
   **   ~~~   ** Air System Named = CENTRAL SYSTEM did not converge for energy
   **   ~~~   ** Check values should be zero. Most Recent values listed first.
   **   ~~~   ** Demand-to-Supply interface energy check value iteration history trace: 1865.456160,1865.456160,1865.456160,1865.456160,1865.456159,1865.456159,1865.456159,1865.456159,1865.456159,1865.456159,
   **   ~~~   ** Supply-to-demand interface deck 1 energy check value iteration history trace: 2853.131330,2853.131329,2853.131329,2853.131329,2853.131329,2853.131329,2853.131329,2853.131328,2853.131328,2853.131328,
   ** Warning ** SimHVAC: Maximum iterations (20) exceeded for all HVAC loops, at ANNUAL, 01/13 12:15 - 12:22
   **   ~~~   ** The solution for one or more of the Air Loop HVAC systems did not appear to converge
   **   ~~~   ** Air System Named = CENTRAL SYSTEM did not converge for mass flow rate
   **   ~~~   ** Check values should be zero. Most Recent values listed first.
   **   ~~~   ** Demand-to-Supply interface mass flow rate check value iteration history trace: 4.994384E-002,4.994384E-002,4.994384E-002,4.994384E-002,4.994384E-002,4.994384E-002,4.994384E-002,4.994384E-002,4.994384E-002,4.994384E-002,
   **   ~~~   ** Supply-to-demand interface deck 1 mass flow rate check value iteration history trace: 4.994384E-002,4.994384E-002,4.994384E-002,4.994384E-002,4.994384E-002,4.994384E-002,4.994384E-002,4.994384E-002,4.994384E-002,4.994384E-002,
   **   ~~~   ** Air System Named = CENTRAL SYSTEM did not converge for energy
   **   ~~~   ** Check values should be zero. Most Recent values listed first.
   **   ~~~   ** Demand-to-Supply interface energy check value iteration history trace: 988.581094,988.581094,988.581094,988.581094,988.581094,988.581094,988.581094,988.581094,988.581094,988.581094,
   **   ~~~   ** Supply-to-demand interface deck 1 energy check value iteration history trace: 1872.948986,1872.948986,1872.948986,1872.948986,1872.948986,1872.948986,1872.948986,1872.948986,1872.948986,1872.948985,
   **   ~~~   ** Node named ZONE INLET NODE shows oscillating temperatures across iterations with a repeated value of 37.320328
   **   ~~~   ** Node named ZONE INLET NODE temperature [C] iteration history trace (most recent first): 37.320328,37.320328,37.320328,37.320328,37.320327,37.320327,37.320327,37.320327,37.320327,37.320326,
   ** Warning ** SimHVAC: Maximum iterations (20) exceeded for all HVAC loops, at ANNUAL, 02/28 12:47 - 12:49
   **   ~~~   ** The solution for one or more of the Air Loop HVAC systems did not appear to converge
   **   ~~~   ** Air System Named = CENTRAL SYSTEM did not converge for mass flow rate
   **   ~~~   ** Check values should be zero. Most Recent values listed first.
   **   ~~~   ** Demand-to-Supply interface mass flow rate check value iteration history trace: 9.777011E-002,9.777011E-002,9.777011E-002,9.777011E-002,9.777011E-002,9.777011E-002,9.777011E-002,9.777011E-002,9.777011E-002,9.777011E-002,
   **   ~~~   ** Supply-to-demand interface deck 1 mass flow rate check value iteration history trace: 9.777011E-002,9.777011E-002,9.777011E-002,9.777011E-002,9.777011E-002,9.777011E-002,9.777011E-002,9.777011E-002,9.777011E-002,9.777011E-002,
   **   ~~~   ** Air System Named = CENTRAL SYSTEM did not converge for energy
   **   ~~~   ** Check values should be zero. Most Recent values listed first.
   **   ~~~   ** Demand-to-Supply interface energy check value iteration history trace: 1937.645319,1937.645319,1937.645319,1937.645319,1937.645319,1937.645319,1937.645319,1937.645319,1937.645319,1937.645318,
   **   ~~~   ** Supply-to-demand interface deck 1 energy check value iteration history trace: 2965.038477,2965.038477,2965.038477,2965.038477,2965.038476,2965.038476,2965.038476,2965.038476,2965.038476,2965.038476,
   ** Warning ** SimHVAC: Maximum iterations (20) exceeded for all HVAC loops, at ANNUAL, 03/01 14:10 - 14:15
   **   ~~~   ** The solution for one or more of the Air Loop HVAC systems did not appear to converge
   **   ~~~   ** Air System Named = CENTRAL SYSTEM did not converge for mass flow rate
   **   ~~~   ** Check values should be zero. Most Recent values listed first.
   **   ~~~   ** Demand-to-Supply interface mass flow rate check value iteration history trace: 7.133639E-002,7.133639E-002,7.133639E-002,7.133639E-002,7.133639E-002,7.133639E-002,7.133639E-002,7.133639E-002,7.133639E-002,7.133639E-002,
   **   ~~~   ** Supply-to-demand interface deck 1 mass flow rate check value iteration history trace: 7.133639E-002,7.133639E-002,7.133639E-002,7.133639E-002,7.133639E-002,7.133639E-002,7.133639E-002,7.133639E-002,7.133639E-002,7.133639E-002,
   **   ~~~   ** Air System Named = CENTRAL SYSTEM did not converge for energy
   **   ~~~   ** Check values should be zero. Most Recent values listed first.
   **   ~~~   ** Demand-to-Supply interface energy check value iteration history trace: 1413.599128,1413.599128,1413.599128,1413.599128,1413.599128,1413.599128,1413.599128,1413.599127,1413.599127,1413.599127,
   **   ~~~   ** Supply-to-demand interface deck 1 energy check value iteration history trace: 2086.181528,2086.181527,2086.181527,2086.181527,2086.181527,2086.181527,2086.181527,2086.181527,2086.181527,2086.181526,
   ** Warning ** SimHVAC: Maximum iterations (20) exceeded for all HVAC loops, at ANNUAL, 03/10 11:45 - 11:52
   **   ~~~   ** The solution for one or more of the Air Loop HVAC systems did not appear to converge
   **   ~~~   ** Air System Named = CENTRAL SYSTEM did not converge for mass flow rate
   **   ~~~   ** Check values should be zero. Most Recent values listed first.
   **   ~~~   ** Demand-to-Supply interface mass flow rate check value iteration history trace: 5.237285E-002,5.237285E-002,5.237285E-002,5.237285E-002,5.237285E-002,5.237285E-002,5.237285E-002,5.237285E-002,5.237285E-002,5.237285E-002,
   **   ~~~   ** Supply-to-demand interface deck 1 mass flow rate check value iteration history trace: 5.237285E-002,5.237285E-002,5.237285E-002,5.237285E-002,5.237285E-002,5.237285E-002,5.237285E-002,5.237285E-002,5.237285E-002,5.237285E-002,
   **   ~~~   ** Air System Named = CENTRAL SYSTEM did not converge for energy
   **   ~~~   ** Check values should be zero. Most Recent values listed first.
   **   ~~~   ** Demand-to-Supply interface energy check value iteration history trace: 1037.325535,1037.325535,1037.325535,1037.325535,1037.325535,1037.325535,1037.325535,1037.325535,1037.325535,1037.325535,
   **   ~~~   ** Supply-to-demand interface deck 1 energy check value iteration history trace: 1959.055154,1959.055154,1959.055154,1959.055154,1959.055154,1959.055154,1959.055154,1959.055154,1959.055153,1959.055153,
   ** Warning ** SimHVAC: Maximum iterations (20) exceeded for all HVAC loops, at ANNUAL, 03/12 00:15 - 00:30
   **   ~~~   ** The solution for one or more of the Air Loop HVAC systems did not appear to converge
   **   ~~~   ** Air System Named = CENTRAL SYSTEM did not converge for mass flow rate
   **   ~~~   ** Check values should be zero. Most Recent values listed first.
   **   ~~~   ** Demand-to-Supply interface mass flow rate check value iteration history trace: 7.865056E-002,7.865056E-002,7.865056E-002,7.865056E-002,7.865056E-002,7.865056E-002,7.865056E-002,7.865056E-002,7.865056E-002,7.865056E-002,
   **   ~~~   ** Supply-to-demand interface deck 1 mass flow rate check value iteration history trace: 7.865056E-002,7.865056E-002,7.865056E-002,7.865056E-002,7.865056E-002,7.865056E-002,7.865056E-002,7.865056E-002,7.865056E-002,7.865056E-002,
   **   ~~~   ** Air System Named = CENTRAL SYSTEM did not converge for energy
   **   ~~~   ** Check values should be zero. Most Recent values listed first.
   **   ~~~   ** Demand-to-Supply interface energy check value iteration history trace: 1452.814596,1452.814596,1452.814596,1452.814596,1452.814596,1452.814596,1452.814596,1452.814596,1452.814596,1452.814596,
   **   ~~~   ** Supply-to-demand interface deck 1 energy check value iteration history trace: 2292.639307,2292.639307,2292.639307,2292.639307,2292.639307,2292.639307,2292.639307,2292.639307,2292.639306,2292.639306,
   ** Warning ** SimHVAC: Maximum iterations (20) exceeded for all HVAC loops, at ANNUAL, 03/17 14:30 - 14:35
   **   ~~~   ** The solution for one or more of the Air Loop HVAC systems did not appear to converge
   **   ~~~   ** Air System Named = CENTRAL SYSTEM did not converge for mass flow rate
   **   ~~~   ** Check values should be zero. Most Recent values listed first.
   **   ~~~   ** Demand-to-Supply interface mass flow rate check value iteration history trace: 6.570358E-002,6.570358E-002,6.570358E-002,6.570358E-002,6.570358E-002,6.570358E-002,6.570358E-002,6.570358E-002,6.570358E-002,6.570358E-002,
   **   ~~~   ** Supply-to-demand interface deck 1 mass flow rate check value iteration history trace: 6.570358E-002,6.570358E-002,6.570358E-002,6.570358E-002,6.570358E-002,6.570358E-002,6.570358E-002,6.570358E-002,6.570358E-002,6.570358E-002,
   **   ~~~   ** Air System Named = CENTRAL SYSTEM did not converge for energy
   **   ~~~   ** Check values should be zero. Most Recent values listed first.
   **   ~~~   ** Demand-to-Supply interface energy check value iteration history trace: 1297.856600,1297.856600,1297.856600,1297.856600,1297.856600,1297.856600,1297.856600,1297.856600,1297.856600,1297.856600,
   **   ~~~   ** Supply-to-demand interface deck 1 energy check value iteration history trace: 1986.674243,1986.674243,1986.674243,1986.674243,1986.674243,1986.674243,1986.674243,1986.674242,1986.674242,1986.674242,
   ** Warning ** SimHVAC: Maximum iterations (20) exceeded for all HVAC loops, at ANNUAL, 03/21 14:30 - 14:35
   **   ~~~   ** The solution for one or more of the Air Loop HVAC systems did not appear to converge
   **   ~~~   ** Air System Named = CENTRAL SYSTEM did not converge for mass flow rate
   **   ~~~   ** Check values should be zero. Most Recent values listed first.
   **   ~~~   ** Demand-to-Supply interface mass flow rate check value iteration history trace: 7.976460E-002,7.976460E-002,7.976460E-002,7.976460E-002,7.976460E-002,7.976460E-002,7.976460E-002,7.976460E-002,7.976460E-002,7.976460E-002,
   **   ~~~   ** Supply-to-demand interface deck 1 mass flow rate check value iteration history trace: 7.976460E-002,7.976460E-002,7.976460E-002,7.976460E-002,7.976460E-002,7.976460E-002,7.976460E-002,7.976460E-002,7.976460E-002,7.976460E-002,
   **   ~~~   ** Air System Named = CENTRAL SYSTEM did not converge for energy
   **   ~~~   ** Check values should be zero. Most Recent values listed first.
   **   ~~~   ** Demand-to-Supply interface energy check value iteration history trace: 1566.680177,1566.680177,1566.680177,1566.680177,1566.680177,1566.680177,1566.680177,1566.680177,1566.680176,1566.680176,
   **   ~~~   ** Supply-to-demand interface deck 1 energy check value iteration history trace: 2390.734769,2390.734769,2390.734769,2390.734769,2390.734769,2390.734769,2390.734768,2390.734768,2390.734768,2390.734768,
   ** Warning ** SimHVAC: Maximum iterations (20) exceeded for all HVAC loops, at ANNUAL, 03/24 19:45 - 19:52
   **   ~~~   ** The solution for one or more of the Air Loop HVAC systems did not appear to converge
   **   ~~~   ** Air System Named = CENTRAL SYSTEM did not converge for mass flow rate
   **   ~~~   ** Check values should be zero. Most Recent values listed first.
   **   ~~~   ** Demand-to-Supply interface mass flow rate check value iteration history trace: 9.738843E-002,9.738843E-002,9.738843E-002,9.738843E-002,9.738843E-002,9.738843E-002,9.738843E-002,9.738843E-002,9.738843E-002,9.738843E-002,
   **   ~~~   ** Supply-to-demand interface deck 1 mass flow rate check value iteration history trace: 9.738843E-002,9.738843E-002,9.738843E-002,9.738843E-002,9.738843E-002,9.738843E-002,9.738843E-002,9.738843E-002,9.738843E-002,9.738843E-002,
   **   ~~~   ** Air System Named = CENTRAL SYSTEM did not converge for energy
   **   ~~~   ** Check values should be zero. Most Recent values listed first.
   **   ~~~   ** Demand-to-Supply interface energy check value iteration history trace: 1918.950935,1918.950935,1918.950935,1918.950935,1918.950935,1918.950935,1918.950935,1918.950935,1918.950934,1918.950934,
   **   ~~~   ** Supply-to-demand interface deck 1 energy check value iteration history trace: 3033.119458,3033.119458,3033.119458,3033.119458,3033.119457,3033.119457,3033.119457,3033.119457,3033.119457,3033.119456,
   ** Warning ** SimHVAC: Maximum iterations (20) exceeded for all HVAC loops, at ANNUAL, 04/05 09:33 - 09:36
   **   ~~~   ** The solution for one or more of the Air Loop HVAC systems did not appear to converge
   **   ~~~   ** Air System Named = CENTRAL SYSTEM did not converge for mass flow rate
   **   ~~~   ** Check values should be zero. Most Recent values listed first.
   **   ~~~   ** Demand-to-Supply interface mass flow rate check value iteration history trace: 7.233538E-002,7.233538E-002,7.233538E-002,7.233538E-002,7.233538E-002,7.233538E-002,7.233538E-002,7.233538E-002,7.233538E-002,7.233538E-002,
   **   ~~~   ** Supply-to-demand interface deck 1 mass flow rate check value iteration history trace: 7.233538E-002,7.233538E-002,7.233538E-002,7.233538E-002,7.233538E-002,7.233538E-002,7.233538E-002,7.233538E-002,7.233538E-002,7.233538E-002,
   **   ~~~   ** Air System Named = CENTRAL SYSTEM did not converge for energy
   **   ~~~   ** Check values should be zero. Most Recent values listed first.
   **   ~~~   ** Demand-to-Supply interface energy check value iteration history trace: 1425.911834,1425.911834,1425.911834,1425.911834,1425.911834,1425.911834,1425.911834,1425.911834,1425.911833,1425.911833,
   **   ~~~   ** Supply-to-demand interface deck 1 energy check value iteration history trace: 2578.981925,2578.981925,2578.981925,2578.981925,2578.981924,2578.981924,2578.981924,2578.981924,2578.981924,2578.981924,
   ** Warning ** SimHVAC: Maximum iterations (20) exceeded for all HVAC loops, at ANNUAL, 04/06 21:23 - 21:30
   **   ~~~   ** The solution for one or more of the Air Loop HVAC systems did not appear to converge
   **   ~~~   ** Air System Named = CENTRAL SYSTEM did not converge for mass flow rate
   **   ~~~   ** Check values should be zero. Most Recent values listed first.
   **   ~~~   ** Demand-to-Supply interface mass flow rate check value iteration history trace: 0.106518,0.106518,0.106518,0.106518,0.106518,0.106518,0.106518,0.106518,0.106518,0.106518,
   **   ~~~   ** Supply-to-demand interface deck 1 mass flow rate check value iteration history trace: 0.106518,0.106518,0.106518,0.106518,0.106518,0.106518,0.106518,0.106518,0.106518,0.106518,
   **   ~~~   ** Air System Named = CENTRAL SYSTEM did not converge for energy
   **   ~~~   ** Check values should be zero. Most Recent values listed first.
   **   ~~~   ** Demand-to-Supply interface energy check value iteration history trace: 2109.492927,2109.492927,2109.492926,2109.492926,2109.492926,2109.492926,2109.492926,2109.492926,2109.492926,2109.492925,
   **   ~~~   ** Supply-to-demand interface deck 1 energy check value iteration history trace: 3238.853715,3238.853714,3238.853714,3238.853714,3238.853714,3238.853713,3238.853713,3238.853713,3238.853713,3238.853713,
   ** Warning ** SimHVAC: Maximum iterations (20) exceeded for all HVAC loops, at ANNUAL, 04/09 08:21 - 08:24
   **   ~~~   ** The solution for one or more of the Air Loop HVAC systems did not appear to converge
   **   ~~~   ** Air System Named = CENTRAL SYSTEM did not converge for mass flow rate
   **   ~~~   ** Check values should be zero. Most Recent values listed first.
   **   ~~~   ** Demand-to-Supply interface mass flow rate check value iteration history trace: 5.821383E-002,5.821383E-002,5.821383E-002,5.821383E-002,5.821383E-002,5.821383E-002,5.821383E-002,5.821383E-002,5.821383E-002,5.821383E-002,
   **   ~~~   ** Supply-to-demand interface deck 1 mass flow rate check value iteration history trace: 5.821383E-002,5.821383E-002,5.821383E-002,5.821383E-002,5.821383E-002,5.821383E-002,5.821383E-002,5.821383E-002,5.821383E-002,5.821383E-002,
   **   ~~~   ** Air System Named = CENTRAL SYSTEM did not converge for energy
   **   ~~~   ** Check values should be zero. Most Recent values listed first.
   **   ~~~   ** Demand-to-Supply interface energy check value iteration history trace: 1152.299849,1152.299849,1152.299849,1152.299849,1152.299849,1152.299849,1152.299849,1152.299849,1152.299849,1152.299849,
   **   ~~~   ** Supply-to-demand interface deck 1 energy check value iteration history trace: 1996.619482,1996.619482,1996.619482,1996.619482,1996.619482,1996.619482,1996.619481,1996.619481,1996.619481,1996.619481,
   ** Warning ** SimHVAC: Maximum iterations (20) exceeded for all HVAC loops, at ANNUAL, 04/11 11:45 - 12:00
   **   ~~~   ** The solution for one or more of the Air Loop HVAC systems did not appear to converge
   **   ~~~   ** Air System Named = CENTRAL SYSTEM did not converge for mass flow rate
   **   ~~~   ** Check values should be zero. Most Recent values listed first.
   **   ~~~   ** Demand-to-Supply interface mass flow rate check value iteration history trace: 7.271911E-002,7.271911E-002,7.271911E-002,7.271911E-002,7.271911E-002,7.271911E-002,7.271911E-002,7.271911E-002,7.271911E-002,7.271911E-002,
   **   ~~~   ** Supply-to-demand interface deck 1 mass flow rate check value iteration history trace: 7.271911E-002,7.271911E-002,7.271911E-002,7.271911E-002,7.271911E-002,7.271911E-002,7.271911E-002,7.271911E-002,7.271911E-002,7.271911E-002,
   **   ~~~   ** Air System Named = CENTRAL SYSTEM did not converge for energy
   **   ~~~   ** Check values should be zero. Most Recent values listed first.
   **   ~~~   ** Demand-to-Supply interface energy check value iteration history trace: 1418.340602,1418.340602,1418.340602,1418.340601,1418.340601,1418.340601,1418.340601,1418.340601,1418.340601,1418.340601,
   **   ~~~   ** Supply-to-demand interface deck 1 energy check value iteration history trace: 2518.020263,2518.020262,2518.020262,2518.020262,2518.020262,2518.020262,2518.020262,2518.020262,2518.020262,2518.020261,
   ************* Simulation Error Summary *************
   ** Warning ** The following Report Variables were requested but not generated -- check.rdd file
   **   ~~~   ** Either the IDF did not contain these elements, the variable name is misspelled,
   **   ~~~   ** or the requested variable is an advanced output which requires Output : Diagnostics, DisplayAdvancedReportVariables;
   ************* Key=*, VarName=BASEBOARD TOTAL HEATING ENERGY, Frequency=
   ************* Key=*, VarName=WATER HEATER NATURALGAS ENERGY, Frequency=
   ************* Key=*, VarName=COOLING COIL TOTAL HEATING ENERGY, Frequency=
   ************* There are 34 unused schedules in input.
   ************* There are 388 unused week schedules in input.
   ************* There are 396 unused day schedules in input.
   ************* Use Output:Diagnostics,DisplayUnusedSchedules; to see them.
   *************
   ************* ===== Recurring Error Summary =====
   ************* The following recurring error messages occurred.
   *************
   *************  ** Warning ** "TOTAL HOT WATER LOAD" - Target water temperature should be less than or equal to the hot water temperature error continues...
   *************  **   ~~~   **   This error occurred 144633 total times;
   *************  **   ~~~   **   during Warmup 0 times;
   *************  **   ~~~   **   during Sizing 0 times.
   *************  **   ~~~   **   Max=15.142265  Min=1.877734E-003
   *************
   *************  ** Warning ** SimHVAC: Exceeding Maximum iterations for all HVAC loops, during ANNUAL continues
   *************  **   ~~~   **   This error occurred 10 total times;
   *************  **   ~~~   **   during Warmup 0 times;
   *************  **   ~~~   **   during Sizing 0 times.
   *************
   *************
   ************* ===== Final Error Summary =====
   ************* The following error categories occurred.  Consider correcting or noting.
   ************* Nominally Unused Constructions
   ************* ..The nominally unused constructions warning is provided to alert you to potential conditions that can cause
   ************* ..extra time during simulation. Each construction is calculated by the algorithm indicated in the HeatBalanceAlgorithm
   ************* ..object. You may remove the constructions indicated (when you use the DisplayExtraWarnings option).
   *************
   ************* EnergyPlus Warmup Error Summary. During Warmup: 1 Warning; 0 Severe Errors.
   ************* EnergyPlus Sizing Error Summary. During Sizing: 4 Warning; 0 Severe Errors.
   ************* EnergyPlus Completed Successfully-- 144674 Warning; 0 Severe Errors; Elapsed Time=00hr 01min 31.59sec
