Program Version,EnergyPlus, Version 22.2.0-c249759bad, YMD=2023.09.01 19:43,
   ************* Beginning Zone Sizing Calculations
   ** Warning ** ProcessScheduleInput: Schedule:Constant="ALWAYS ON DISCRETE", Schedule Type Limits Name="ONOFF" not found -- will not be validated
   ** Warning ** Foundation:Kiva="KIVA FOUNDATION", no Interior Horizontal Insulation Material Name defined
   **   ~~~   ** Interior Horizontal Insulation Depth will not be used.
   ** Warning ** CheckUsedConstructions: There are 15 nominally unused constructions in input.
   **   ~~~   ** Each Unused construction is shown.
   ************* Construction=INTERIOR FLOOR
   ************* Construction=INTERIOR WINDOW
   ************* Construction=EXTERIOR DOOR
   ************* Construction=INTERIOR DOOR
   ************* Construction=GABLE CONSTRUCTION
   ************* Construction=CRAWL_FLOOR
   ************* Construction=INSULATED PIPE
   ************* Construction=PLAIN PIPE
   ************* Construction=TDD PIPE
   ************* Construction=TDD DOME
   ************* Construction=TDD DIFFUSER
   ************* Construction=CRAWL WALL
   ************* Construction=CEILING-FLOOR-LAYER
   ************* Construction=SLAB CONSTRUCTION W FULL R10 INSULATION
   ************* Construction=SLAB CONSTRUCTION W FULL R5 INSULATION
   ** Warning ** GetDXCoils: Coil:Heating:DX:SingleSpeed="DX_HEATING_COIL" curve values
   **   ~~~   ** ... Defrost Energy Input Ratio Function of Temperature Curve Name = DEFROSTEIR output is not equal to 1.0 (+ or - 10%) at rated conditions.
   **   ~~~   ** ... Curve output at rated conditions = 0.152
   ************* Beginning System Sizing Calculations
   ************* Beginning Plant Sizing Calculations
   ** Warning ** Coil:WaterHeating:AirToWaterHeatPump:Wrapped "HEAT PUMP WATER HEATER EVAPORATOR": Rated air volume flow rate per watt of rated total water heating capacity is out of range
   **   ~~~   ** Min Rated Vol Flow Per Watt=[4.027E-005], Rated Vol Flow Per Watt=[1.510E-004], Max Rated Vol Flow Per Watt=[8.056E-005]. See Input-Output Reference Manual for valid range.
   ************* SizeFan: : Potential issue with equipment sizing for Fan:OnOff HEAT PUMP WATER HEATER FAN
   **   ~~~   ** User-Specified Maximum Flow Rate [m3/s] = 0.22653
   **   ~~~   ** differs from Design Size Maximum Flow Rate [m3/s] = 7.55250E-002
   **   ~~~   ** This may, or may not, indicate mismatched component sizes.
   **   ~~~   ** Verify that the value entered is intended and is consistent with other components.
   ** Warning ** Water heater = WATER HEATER TANK:  Recovery Efficiency and Energy Factor could not be calculated during the test for standard ratings
   **   ~~~   ** Setpoint was never recovered and/or heater never turned on
   ** Warning ** Check input. Pump nominal power or motor efficiency is set to 0, for pump=MAINS PRESSURE
   ** Warning ** Output:Meter: invalid Key Name="ELECTRIC_RANGE:INTERIOREQUIPMENT:ELECTRICITY" - not found.
   ** Warning ** Output:Meter: invalid Key Name="ELECTRIC_DRYER:INTERIOREQUIPMENT:ELECTRICITY" - not found.
   ** Warning ** Output:Meter: invalid Key Name="HEATRECOVERY:ELECTRICITY" - not found.
   ** Warning ** Output:Meter: invalid Key Name="HEATING:NATURALGAS" - not found.
   ** Warning ** Output:Meter: invalid Key Name="WATERSYSTEMS:NATURALGAS" - not found.
   ** Warning ** Output:Meter: invalid Key Name="PROPANE:FACILITY" - not found.
   ** Warning ** Output:Meter: invalid Key Name="HEATING:PROPANE" - not found.
   ************* Testing Individual Branch Integrity
   ************* All Branches passed integrity testing
   ************* Testing Individual Supply Air Path Integrity
   ************* All Supply Air Paths passed integrity testing
   ************* Testing Individual Return Air Path Integrity
   ************* All Return Air Paths passed integrity testing
   ************* No node connection errors were found.
   ************* Beginning Simulation
   ** Warning ** AirflowNetwork::Solver::validate_distribution: Heat pump water heater is simulated along with an AirflowNetwork but is not included in the AirflowNetwork.
   ** Warning ** CalcEquipmentFlowRates: "TOTAL HOT WATER LOAD" - Target water temperature is greater than the hot water temperature by (4.68 C)
   **   ~~~   **  Environment=EXTREME_WINTER, at Simulation time=01/06 06:00 - 06:15
   **   ~~~   ** ...target water temperature     = 53.33 C
   **   ~~~   ** ...hot water temperature        = 48.66 C
   **   ~~~   ** ...Target water temperature should be less than or equal to the hot water temperature. Verify temperature setpoints and schedules.
   ** Warning ** SimHVAC: Maximum iterations (20) exceeded for all HVAC loops, at ANNUAL, 01/08 11:45 - 12:00
   **   ~~~   ** The solution for one or more of the Air Loop HVAC systems did not appear to converge
   **   ~~~   ** Air System Named = CENTRAL SYSTEM did not converge for mass flow rate
   **   ~~~   ** Check values should be zero. Most Recent values listed first.
   **   ~~~   ** Demand-to-Supply interface mass flow rate check value iteration history trace: 8.098633E-002,8.098633E-002,8.098633E-002,8.098633E-002,8.098633E-002,8.098633E-002,8.098633E-002,8.098633E-002,8.098633E-002,8.098633E-002,
   **   ~~~   ** Supply-to-demand interface deck 1 mass flow rate check value iteration history trace: 8.098633E-002,8.098633E-002,8.098633E-002,8.098633E-002,8.098633E-002,8.098633E-002,8.098633E-002,8.098633E-002,8.098633E-002,8.098633E-002,
   **   ~~~   ** Air System Named = CENTRAL SYSTEM did not converge for energy
   **   ~~~   ** Check values should be zero. Most Recent values listed first.
   **   ~~~   ** Demand-to-Supply interface energy check value iteration history trace: 1604.839009,1604.839009,1604.839009,1604.839009,1604.839009,1604.839009,1604.839009,1604.839009,1604.839008,1604.839008,
   **   ~~~   ** Supply-to-demand interface deck 1 energy check value iteration history trace: 2459.573826,2459.573826,2459.573826,2459.573825,2459.573825,2459.573825,2459.573825,2459.573825,2459.573825,2459.573825,
   ** Warning ** SimHVAC: Maximum iterations (20) exceeded for all HVAC loops, at ANNUAL, 01/08 23:00 - 23:15
   **   ~~~   ** The solution for one or more of the Air Loop HVAC systems did not appear to converge
   **   ~~~   ** Air System Named = CENTRAL SYSTEM did not converge for mass flow rate
   **   ~~~   ** Check values should be zero. Most Recent values listed first.
   **   ~~~   ** Demand-to-Supply interface mass flow rate check value iteration history trace: 7.956366E-002,7.956366E-002,7.956366E-002,7.956366E-002,7.956366E-002,7.956366E-002,7.956366E-002,7.956366E-002,7.956366E-002,7.956366E-002,
   **   ~~~   ** Supply-to-demand interface deck 1 mass flow rate check value iteration history trace: 7.956366E-002,7.956366E-002,7.956366E-002,7.956366E-002,7.956366E-002,7.956366E-002,7.956366E-002,7.956366E-002,7.956366E-002,7.956366E-002,
   **   ~~~   ** Air System Named = CENTRAL SYSTEM did not converge for energy
   **   ~~~   ** Check values should be zero. Most Recent values listed first.
   **   ~~~   ** Demand-to-Supply interface energy check value iteration history trace: 1499.034257,1499.034257,1499.034257,1499.034257,1499.034257,1499.034257,1499.034257,1499.034257,1499.034257,1499.034256,
   **   ~~~   ** Supply-to-demand interface deck 1 energy check value iteration history trace: 2317.121815,2317.121815,2317.121815,2317.121815,2317.121814,2317.121814,2317.121814,2317.121814,2317.121814,2317.121814,
   ** Warning ** SimHVAC: Maximum iterations (20) exceeded for all HVAC loops, at ANNUAL, 01/28 09:45 - 10:00
   **   ~~~   ** The solution for one or more of the Air Loop HVAC systems did not appear to converge
   **   ~~~   ** Air System Named = CENTRAL SYSTEM did not converge for mass flow rate
   **   ~~~   ** Check values should be zero. Most Recent values listed first.
   **   ~~~   ** Demand-to-Supply interface mass flow rate check value iteration history trace: 7.153420E-002,7.153420E-002,7.153420E-002,7.153420E-002,7.153420E-002,7.153420E-002,7.153420E-002,7.153420E-002,7.153420E-002,7.153420E-002,
   **   ~~~   ** Supply-to-demand interface deck 1 mass flow rate check value iteration history trace: 7.153420E-002,7.153420E-002,7.153420E-002,7.153420E-002,7.153420E-002,7.153420E-002,7.153420E-002,7.153420E-002,7.153420E-002,7.153420E-002,
   **   ~~~   ** Air System Named = CENTRAL SYSTEM did not converge for energy
   **   ~~~   ** Check values should be zero. Most Recent values listed first.
   **   ~~~   ** Demand-to-Supply interface energy check value iteration history trace: 1417.563386,1417.563386,1417.563386,1417.563386,1417.563386,1417.563386,1417.563386,1417.563386,1417.563386,1417.563386,
   **   ~~~   ** Supply-to-demand interface deck 1 energy check value iteration history trace: 2433.884539,2433.884539,2433.884539,2433.884539,2433.884539,2433.884538,2433.884538,2433.884538,2433.884538,2433.884538,
   ** Warning ** SimHVAC: Maximum iterations (20) exceeded for all HVAC loops, at ANNUAL, 02/02 07:00 - 07:15
   **   ~~~   ** The solution for one or more of the Air Loop HVAC systems did not appear to converge
   **   ~~~   ** Air System Named = CENTRAL SYSTEM did not converge for mass flow rate
   **   ~~~   ** Check values should be zero. Most Recent values listed first.
   **   ~~~   ** Demand-to-Supply interface mass flow rate check value iteration history trace: 5.418592E-002,5.418592E-002,5.418592E-002,5.418592E-002,5.418592E-002,5.418592E-002,5.418592E-002,5.418592E-002,5.418592E-002,5.418592E-002,
   **   ~~~   ** Supply-to-demand interface deck 1 mass flow rate check value iteration history trace: 5.418592E-002,5.418592E-002,5.418592E-002,5.418592E-002,5.418592E-002,5.418592E-002,5.418592E-002,5.418592E-002,5.418592E-002,5.418592E-002,
   **   ~~~   ** Air System Named = CENTRAL SYSTEM did not converge for energy
   **   ~~~   ** Check values should be zero. Most Recent values listed first.
   **   ~~~   ** Demand-to-Supply interface energy check value iteration history trace: 1060.840324,1060.840324,1060.840324,1060.840324,1060.840324,1060.840324,1060.840324,1060.840324,1060.840324,1060.840324,
   **   ~~~   ** Supply-to-demand interface deck 1 energy check value iteration history trace: 1881.520751,1881.520751,1881.520751,1881.520751,1881.520751,1881.520751,1881.520751,1881.520751,1881.520750,1881.520750,
   ** Warning ** SimHVAC: Maximum iterations (20) exceeded for all HVAC loops, at ANNUAL, 02/09 08:45 - 08:48
   **   ~~~   ** The solution for one or more of the Air Loop HVAC systems did not appear to converge
   **   ~~~   ** Air System Named = CENTRAL SYSTEM did not converge for mass flow rate
   **   ~~~   ** Check values should be zero. Most Recent values listed first.
   **   ~~~   ** Demand-to-Supply interface mass flow rate check value iteration history trace: 6.234591E-002,6.234591E-002,6.234591E-002,6.234591E-002,6.234591E-002,6.234591E-002,6.234591E-002,6.234591E-002,6.234591E-002,6.234591E-002,
   **   ~~~   ** Supply-to-demand interface deck 1 mass flow rate check value iteration history trace: 6.234591E-002,6.234591E-002,6.234591E-002,6.234591E-002,6.234591E-002,6.234591E-002,6.234591E-002,6.234591E-002,6.234591E-002,6.234591E-002,
   **   ~~~   ** Air System Named = CENTRAL SYSTEM did not converge for energy
   **   ~~~   ** Check values should be zero. Most Recent values listed first.
   **   ~~~   ** Demand-to-Supply interface energy check value iteration history trace: 1231.723948,1231.723948,1231.723948,1231.723948,1231.723948,1231.723948,1231.723948,1231.723948,1231.723948,1231.723947,
   **   ~~~   ** Supply-to-demand interface deck 1 energy check value iteration history trace: 2115.178458,2115.178458,2115.178458,2115.178457,2115.178457,2115.178457,2115.178457,2115.178457,2115.178457,2115.178457,
   ** Warning ** SimHVAC: Maximum iterations (20) exceeded for all HVAC loops, at ANNUAL, 02/11 08:30 - 08:45
   **   ~~~   ** The solution for one or more of the Air Loop HVAC systems did not appear to converge
   **   ~~~   ** Air System Named = CENTRAL SYSTEM did not converge for mass flow rate
   **   ~~~   ** Check values should be zero. Most Recent values listed first.
   **   ~~~   ** Demand-to-Supply interface mass flow rate check value iteration history trace: 6.521571E-002,6.521571E-002,6.521571E-002,6.521571E-002,6.521571E-002,6.521571E-002,6.521571E-002,6.521571E-002,6.521571E-002,6.521571E-002,
   **   ~~~   ** Supply-to-demand interface deck 1 mass flow rate check value iteration history trace: 6.521571E-002,6.521571E-002,6.521571E-002,6.521571E-002,6.521571E-002,6.521571E-002,6.521571E-002,6.521571E-002,6.521571E-002,6.521571E-002,
   **   ~~~   ** Air System Named = CENTRAL SYSTEM did not converge for energy
   **   ~~~   ** Check values should be zero. Most Recent values listed first.
   **   ~~~   ** Demand-to-Supply interface energy check value iteration history trace: 1283.972996,1283.972996,1283.972996,1283.972996,1283.972996,1283.972996,1283.972996,1283.972995,1283.972995,1283.972995,
   **   ~~~   ** Supply-to-demand interface deck 1 energy check value iteration history trace: 2267.061577,2267.061577,2267.061577,2267.061577,2267.061577,2267.061577,2267.061577,2267.061577,2267.061577,2267.061577,
   ** Warning ** SimHVAC: Maximum iterations (20) exceeded for all HVAC loops, at ANNUAL, 02/11 09:30 - 09:38
   **   ~~~   ** The solution for one or more of the Air Loop HVAC systems did not appear to converge
   **   ~~~   ** Air System Named = CENTRAL SYSTEM did not converge for mass flow rate
   **   ~~~   ** Check values should be zero. Most Recent values listed first.
   **   ~~~   ** Demand-to-Supply interface mass flow rate check value iteration history trace: 6.306820E-002,6.306820E-002,6.306820E-002,6.306820E-002,6.306820E-002,6.306820E-002,6.306820E-002,6.306820E-002,6.306820E-002,6.306820E-002,
   **   ~~~   ** Supply-to-demand interface deck 1 mass flow rate check value iteration history trace: 6.306820E-002,6.306820E-002,6.306820E-002,6.306820E-002,6.306820E-002,6.306820E-002,6.306820E-002,6.306820E-002,6.306820E-002,6.306820E-002,
   **   ~~~   ** Air System Named = CENTRAL SYSTEM did not converge for energy
   **   ~~~   ** Check values should be zero. Most Recent values listed first.
   **   ~~~   ** Demand-to-Supply interface energy check value iteration history trace: 1250.429298,1250.429298,1250.429298,1250.429298,1250.429298,1250.429298,1250.429297,1250.429297,1250.429297,1250.429297,
   **   ~~~   ** Supply-to-demand interface deck 1 energy check value iteration history trace: 2191.865051,2191.865051,2191.865051,2191.865051,2191.865051,2191.865051,2191.865051,2191.865051,2191.865051,2191.865050,
   ** Warning ** SimHVAC: Maximum iterations (20) exceeded for all HVAC loops, at ANNUAL, 04/12 09:23 - 09:26
   **   ~~~   ** The solution for one or more of the Air Loop HVAC systems did not appear to converge
   **   ~~~   ** Air System Named = CENTRAL SYSTEM did not converge for mass flow rate
   **   ~~~   ** Check values should be zero. Most Recent values listed first.
   **   ~~~   ** Demand-to-Supply interface mass flow rate check value iteration history trace: 0.311728,0.311728,0.311728,0.311728,0.311728,0.311728,0.311728,0.311728,0.311728,0.311728,
   **   ~~~   ** Supply-to-demand interface deck 1 mass flow rate check value iteration history trace: 0.311728,0.311728,0.311728,0.311728,0.311728,0.311728,0.311728,0.311728,0.311728,0.311728,
   **   ~~~   ** Air System Named = CENTRAL SYSTEM did not converge for energy
   **   ~~~   ** Check values should be zero. Most Recent values listed first.
   **   ~~~   ** Demand-to-Supply interface energy check value iteration history trace: 7450.967533,7450.967533,7450.967534,7450.967534,7450.967535,7450.967535,7450.967536,7450.967536,7450.967537,7450.967537,
   **   ~~~   ** Supply-to-demand interface deck 1 energy check value iteration history trace: 3498.420196,3498.420196,3498.420197,3498.420197,3498.420197,3498.420197,3498.420198,3498.420198,3498.420198,3498.420198,
   ** Warning ** SimHVAC: Maximum iterations (20) exceeded for all HVAC loops, at ANNUAL, 04/13 12:25 - 12:30
   **   ~~~   ** The solution for one or more of the Air Loop HVAC systems did not appear to converge
   **   ~~~   ** Air System Named = CENTRAL SYSTEM did not converge for mass flow rate
   **   ~~~   ** Check values should be zero. Most Recent values listed first.
   **   ~~~   ** Demand-to-Supply interface mass flow rate check value iteration history trace: 0.330560,0.330560,0.330560,0.330560,0.330560,0.330560,0.330560,0.330560,0.330560,0.330560,
   **   ~~~   ** Supply-to-demand interface deck 1 mass flow rate check value iteration history trace: 0.330560,0.330560,0.330560,0.330560,0.330560,0.330560,0.330560,0.330560,0.330560,0.330560,
   **   ~~~   ** Air System Named = CENTRAL SYSTEM did not converge for energy
   **   ~~~   ** Check values should be zero. Most Recent values listed first.
   **   ~~~   ** Demand-to-Supply interface energy check value iteration history trace: 7948.259536,7948.259537,7948.259537,7948.259538,7948.259538,7948.259539,7948.259540,7948.259540,7948.259541,7948.259541,
   **   ~~~   ** Supply-to-demand interface deck 1 energy check value iteration history trace: 4287.078638,4287.078639,4287.078639,4287.078639,4287.078640,4287.078640,4287.078640,4287.078640,4287.078641,4287.078641,
   ** Warning ** SimHVAC: Maximum iterations (20) exceeded for all HVAC loops, at ANNUAL, 04/16 10:00 - 10:15
   **   ~~~   ** The solution for one or more of the Air Loop HVAC systems did not appear to converge
   **   ~~~   ** Air System Named = CENTRAL SYSTEM did not converge for mass flow rate
   **   ~~~   ** Check values should be zero. Most Recent values listed first.
   **   ~~~   ** Demand-to-Supply interface mass flow rate check value iteration history trace: 4.960810E-002,4.960810E-002,4.960810E-002,4.960810E-002,4.960810E-002,4.960810E-002,4.960810E-002,4.960810E-002,4.960810E-002,4.960810E-002,
   **   ~~~   ** Supply-to-demand interface deck 1 mass flow rate check value iteration history trace: 4.960810E-002,4.960810E-002,4.960810E-002,4.960810E-002,4.960810E-002,4.960810E-002,4.960810E-002,4.960810E-002,4.960810E-002,4.960810E-002,
   **   ~~~   ** Air System Named = CENTRAL SYSTEM did not converge for energy
   **   ~~~   ** Check values should be zero. Most Recent values listed first.
   **   ~~~   ** Demand-to-Supply interface energy check value iteration history trace: 1175.988587,1175.988587,1175.988587,1175.988587,1175.988588,1175.988588,1175.988588,1175.988588,1175.988588,1175.988588,
   **   ~~~   ** Supply-to-demand interface deck 1 energy check value iteration history trace: 554.475297,554.475297,554.475297,554.475297,554.475297,554.475297,554.475297,554.475297,554.475297,554.475297,
   ** Warning ** SimHVAC: Maximum iterations (20) exceeded for all HVAC loops, at ANNUAL, 04/16 10:15 - 10:30
   **   ~~~   ** The solution for one or more of the Air Loop HVAC systems did not appear to converge
   **   ~~~   ** Air System Named = CENTRAL SYSTEM did not converge for mass flow rate
   **   ~~~   ** Check values should be zero. Most Recent values listed first.
   **   ~~~   ** Demand-to-Supply interface mass flow rate check value iteration history trace: 3.972371E-002,3.972371E-002,3.972371E-002,3.972371E-002,3.972371E-002,3.972371E-002,3.972371E-002,3.972371E-002,3.972371E-002,3.972371E-002,
   **   ~~~   ** Supply-to-demand interface deck 1 mass flow rate check value iteration history trace: 3.972371E-002,3.972371E-002,3.972371E-002,3.972371E-002,3.972371E-002,3.972371E-002,3.972371E-002,3.972371E-002,3.972371E-002,3.972371E-002,
   **   ~~~   ** Air System Named = CENTRAL SYSTEM did not converge for energy
   **   ~~~   ** Check values should be zero. Most Recent values listed first.
   **   ~~~   ** Demand-to-Supply interface energy check value iteration history trace: 940.944173,940.944173,940.944173,940.944173,940.944173,940.944173,940.944173,940.944173,940.944173,940.944173,
   **   ~~~   ** Supply-to-demand interface deck 1 energy check value iteration history trace: 438.957665,438.957665,438.957665,438.957665,438.957665,438.957665,438.957665,438.957665,438.957665,438.957665,
   ** Warning ** SimHVAC: Maximum iterations (20) exceeded for all HVAC loops, at ANNUAL, 04/17 10:34 - 10:38
   **   ~~~   ** The solution for one or more of the Air Loop HVAC systems did not appear to converge
   **   ~~~   ** Air System Named = CENTRAL SYSTEM did not converge for mass flow rate
   **   ~~~   ** Check values should be zero. Most Recent values listed first.
   **   ~~~   ** Demand-to-Supply interface mass flow rate check value iteration history trace: 0.270724,0.270724,0.270724,0.270724,0.270724,0.270724,0.270724,0.270724,0.270724,0.270724,
   **   ~~~   ** Supply-to-demand interface deck 1 mass flow rate check value iteration history trace: 0.270724,0.270724,0.270724,0.270724,0.270724,0.270724,0.270724,0.270724,0.270724,0.270724,
   **   ~~~   ** Air System Named = CENTRAL SYSTEM did not converge for energy
   **   ~~~   ** Check values should be zero. Most Recent values listed first.
   **   ~~~   ** Demand-to-Supply interface energy check value iteration history trace: 6459.895453,6459.895454,6459.895454,6459.895454,6459.895455,6459.895455,6459.895456,6459.895456,6459.895456,6459.895457,
   **   ~~~   ** Supply-to-demand interface deck 1 energy check value iteration history trace: 2679.871776,2679.871776,2679.871776,2679.871776,2679.871776,2679.871776,2679.871777,2679.871777,2679.871777,2679.871777,
   ** Warning ** SimHVAC: Maximum iterations (20) exceeded for all HVAC loops, at ANNUAL, 04/18 22:50 - 22:55
   **   ~~~   ** The solution for one or more of the Air Loop HVAC systems did not appear to converge
   **   ~~~   ** Air System Named = CENTRAL SYSTEM did not converge for mass flow rate
   **   ~~~   ** Check values should be zero. Most Recent values listed first.
   **   ~~~   ** Demand-to-Supply interface mass flow rate check value iteration history trace: 3.204944E-002,3.204944E-002,3.204944E-002,3.204944E-002,3.204944E-002,3.204944E-002,3.204944E-002,3.204944E-002,3.204944E-002,3.204944E-002,
   **   ~~~   ** Supply-to-demand interface deck 1 mass flow rate check value iteration history trace: 3.204944E-002,3.204944E-002,3.204944E-002,3.204944E-002,3.204944E-002,3.204944E-002,3.204944E-002,3.204944E-002,3.204944E-002,3.204944E-002,
   **   ~~~   ** Air System Named = CENTRAL SYSTEM did not converge for energy
   **   ~~~   ** Check values should be zero. Most Recent values listed first.
   **   ~~~   ** Demand-to-Supply interface energy check value iteration history trace: 792.162659,792.162659,792.162659,792.162659,792.162659,792.162659,792.162660,792.162660,792.162660,792.162660,
   **   ~~~   ** Supply-to-demand interface deck 1 energy check value iteration history trace: 347.218749,347.218749,347.218749,347.218749,347.218749,347.218749,347.218749,347.218749,347.218750,347.218750,
   ** Warning ** SimHVAC: Maximum iterations (20) exceeded for all HVAC loops, at ANNUAL, 11/19 07:30 - 07:45
   **   ~~~   ** The solution for one or more of the Air Loop HVAC systems did not appear to converge
   **   ~~~   ** Air System Named = CENTRAL SYSTEM did not converge for mass flow rate
   **   ~~~   ** Check values should be zero. Most Recent values listed first.
   **   ~~~   ** Demand-to-Supply interface mass flow rate check value iteration history trace: 8.327009E-002,8.327009E-002,8.327009E-002,8.327009E-002,8.327009E-002,8.327009E-002,8.327009E-002,8.327009E-002,8.327009E-002,8.327009E-002,
   **   ~~~   ** Supply-to-demand interface deck 1 mass flow rate check value iteration history trace: 8.327009E-002,8.327009E-002,8.327009E-002,8.327009E-002,8.327009E-002,8.327009E-002,8.327009E-002,8.327009E-002,8.327009E-002,8.327009E-002,
   **   ~~~   ** Air System Named = CENTRAL SYSTEM did not converge for energy
   **   ~~~   ** Check values should be zero. Most Recent values listed first.
   **   ~~~   ** Demand-to-Supply interface energy check value iteration history trace: 1650.492167,1650.492167,1650.492167,1650.492167,1650.492167,1650.492166,1650.492166,1650.492166,1650.492166,1650.492166,
   **   ~~~   ** Supply-to-demand interface deck 1 energy check value iteration history trace: 2503.596285,2503.596285,2503.596285,2503.596285,2503.596284,2503.596284,2503.596284,2503.596284,2503.596284,2503.596284,
   ************* Simulation Error Summary *************
   ** Warning ** The following Report Variables were requested but not generated -- check.rdd file
   **   ~~~   ** Either the IDF did not contain these elements, the variable name is misspelled,
   **   ~~~   ** or the requested variable is an advanced output which requires Output : Diagnostics, DisplayAdvancedReportVariables;
   ************* Key=*, VarName=BASEBOARD TOTAL HEATING ENERGY, Frequency=
   ************* Key=*, VarName=WATER HEATER NATURALGAS ENERGY, Frequency=
   ************* Key=*, VarName=COOLING COIL TOTAL HEATING ENERGY, Frequency=
   ************* There are 34 unused schedules in input.
   ************* There are 388 unused week schedules in input.
   ************* There are 396 unused day schedules in input.
   ************* Use Output:Diagnostics,DisplayUnusedSchedules; to see them.
   *************
   ************* ===== Recurring Error Summary =====
   ************* The following recurring error messages occurred.
   *************
   *************  ** Warning ** "TOTAL HOT WATER LOAD" - Target water temperature should be less than or equal to the hot water temperature error continues...
   *************  **   ~~~   **   This error occurred 137031 total times;
   *************  **   ~~~   **   during Warmup 0 times;
   *************  **   ~~~   **   during Sizing 0 times.
   *************  **   ~~~   **   Max=10.657485  Min=5.951275E-004
   *************
   *************  ** Warning ** SimHVAC: Exceeding Maximum iterations for all HVAC loops, during ANNUAL continues
   *************  **   ~~~   **   This error occurred 5 total times;
   *************  **   ~~~   **   during Warmup 0 times;
   *************  **   ~~~   **   during Sizing 0 times.
   *************
   *************
   ************* ===== Final Error Summary =====
   ************* The following error categories occurred.  Consider correcting or noting.
   ************* Nominally Unused Constructions
   ************* ..The nominally unused constructions warning is provided to alert you to potential conditions that can cause
   ************* ..extra time during simulation. Each construction is calculated by the algorithm indicated in the HeatBalanceAlgorithm
   ************* ..object. You may remove the constructions indicated (when you use the DisplayExtraWarnings option).
   *************
   ************* EnergyPlus Warmup Error Summary. During Warmup: 1 Warning; 0 Severe Errors.
   ************* EnergyPlus Sizing Error Summary. During Sizing: 4 Warning; 0 Severe Errors.
   ************* EnergyPlus Completed Successfully-- 137067 Warning; 0 Severe Errors; Elapsed Time=00hr 01min 45.94sec
