Program Version,EnergyPlus, Version 22.2.0-c249759bad, YMD=2023.09.01 18:55,
   ************* Beginning Zone Sizing Calculations
   ** Warning ** ProcessScheduleInput: Schedule:Constant="ALWAYS ON DISCRETE", Schedule Type Limits Name="ONOFF" not found -- will not be validated
   ** Warning ** Foundation:Kiva="KIVA FOUNDATION", no Interior Horizontal Insulation Material Name defined
   **   ~~~   ** Interior Horizontal Insulation Depth will not be used.
   ** Warning ** CheckUsedConstructions: There are 15 nominally unused constructions in input.
   **   ~~~   ** Each Unused construction is shown.
   ************* Construction=INTERIOR FLOOR
   ************* Construction=INTERIOR WINDOW
   ************* Construction=EXTERIOR DOOR
   ************* Construction=INTERIOR DOOR
   ************* Construction=GABLE CONSTRUCTION
   ************* Construction=CRAWL_FLOOR
   ************* Construction=INSULATED PIPE
   ************* Construction=PLAIN PIPE
   ************* Construction=TDD PIPE
   ************* Construction=TDD DOME
   ************* Construction=TDD DIFFUSER
   ************* Construction=CRAWL WALL
   ************* Construction=CEILING-FLOOR-LAYER
   ************* Construction=SLAB CONSTRUCTION W FULL R10 INSULATION
   ************* Construction=SLAB CONSTRUCTION W FULL R5 INSULATION
   ** Warning ** GetDXCoils: Coil:Heating:DX:SingleSpeed="DX_HEATING_COIL" curve values
   **   ~~~   ** ... Defrost Energy Input Ratio Function of Temperature Curve Name = DEFROSTEIR output is not equal to 1.0 (+ or - 10%) at rated conditions.
   **   ~~~   ** ... Curve output at rated conditions = 0.152
   ************* Beginning System Sizing Calculations
   ************* Beginning Plant Sizing Calculations
   ** Warning ** SizeDXCoil Coil:Cooling:DX:SingleSpeed DX_COOLING_COIL
   **   ~~~   ** ...Gross Rated Total Cooling Capacity [W] will be limited by the maximum rated volume flow per rated total capacity ratio.
   **   ~~~   ** ...DX coil volume flow rate ( m3/s ) = 0.399847
   **   ~~~   ** ...Requested capacity ( W ) = 6309.835
   **   ~~~   ** ...Requested flow/capacity ratio ( m3/s/W ) = 6.336E-005
   **   ~~~   ** ...Maximum flow/capacity ratio ( m3/s/W ) = 6.041E-005
   **   ~~~   ** ...Adjusted capacity ( W ) = 6618.896
   ** Warning ** Coil:WaterHeating:AirToWaterHeatPump:Wrapped "HEAT PUMP WATER HEATER EVAPORATOR": Rated air volume flow rate per watt of rated total water heating capacity is out of range
   **   ~~~   ** Min Rated Vol Flow Per Watt=[4.027E-005], Rated Vol Flow Per Watt=[1.510E-004], Max Rated Vol Flow Per Watt=[8.056E-005]. See Input-Output Reference Manual for valid range.
   ************* SizeFan: : Potential issue with equipment sizing for Fan:OnOff HEAT PUMP WATER HEATER FAN
   **   ~~~   ** User-Specified Maximum Flow Rate [m3/s] = 0.22653
   **   ~~~   ** differs from Design Size Maximum Flow Rate [m3/s] = 7.55250E-002
   **   ~~~   ** This may, or may not, indicate mismatched component sizes.
   **   ~~~   ** Verify that the value entered is intended and is consistent with other components.
   ** Warning ** Water heater = WATER HEATER TANK:  Recovery Efficiency and Energy Factor could not be calculated during the test for standard ratings
   **   ~~~   ** Setpoint was never recovered and/or heater never turned on
   ** Warning ** Check input. Pump nominal power or motor efficiency is set to 0, for pump=MAINS PRESSURE
   ** Warning ** Output:Meter: invalid Key Name="ELECTRIC_RANGE:INTERIOREQUIPMENT:ELECTRICITY" - not found.
   ** Warning ** Output:Meter: invalid Key Name="ELECTRIC_DRYER:INTERIOREQUIPMENT:ELECTRICITY" - not found.
   ** Warning ** Output:Meter: invalid Key Name="HEATRECOVERY:ELECTRICITY" - not found.
   ** Warning ** Output:Meter: invalid Key Name="HEATING:NATURALGAS" - not found.
   ** Warning ** Output:Meter: invalid Key Name="WATERSYSTEMS:NATURALGAS" - not found.
   ** Warning ** Output:Meter: invalid Key Name="PROPANE:FACILITY" - not found.
   ** Warning ** Output:Meter: invalid Key Name="HEATING:PROPANE" - not found.
   ************* Testing Individual Branch Integrity
   ************* All Branches passed integrity testing
   ************* Testing Individual Supply Air Path Integrity
   ************* All Supply Air Paths passed integrity testing
   ************* Testing Individual Return Air Path Integrity
   ************* All Return Air Paths passed integrity testing
   ************* No node connection errors were found.
   ************* Beginning Simulation
   ** Warning ** AirflowNetwork::Solver::validate_distribution: Heat pump water heater is simulated along with an AirflowNetwork but is not included in the AirflowNetwork.
   ** Warning ** CalcEquipmentFlowRates: "TOTAL HOT WATER LOAD" - Target water temperature is greater than the hot water temperature by (0.79 C)
   **   ~~~   **  Environment=EXTREME_WINTER, at Simulation time=01/06 03:45 - 04:00
   **   ~~~   ** ...target water temperature     = 53.33 C
   **   ~~~   ** ...hot water temperature        = 52.54 C
   **   ~~~   ** ...Target water temperature should be less than or equal to the hot water temperature. Verify temperature setpoints and schedules.
   ** Warning ** SimHVAC: Maximum iterations (20) exceeded for all HVAC loops, at ANNUAL, 03/05 08:15 - 08:30
   **   ~~~   ** The solution for one or more of the Air Loop HVAC systems did not appear to converge
   **   ~~~   ** Air System Named = CENTRAL SYSTEM did not converge for mass flow rate
   **   ~~~   ** Check values should be zero. Most Recent values listed first.
   **   ~~~   ** Demand-to-Supply interface mass flow rate check value iteration history trace: 1.988507E-002,1.988507E-002,1.988507E-002,1.988507E-002,1.988507E-002,1.988507E-002,1.988507E-002,1.988507E-002,1.988507E-002,1.988507E-002,
   **   ~~~   ** Supply-to-demand interface deck 1 mass flow rate check value iteration history trace: 1.988507E-002,1.988507E-002,1.988507E-002,1.988507E-002,1.988507E-002,1.988507E-002,1.988507E-002,1.988507E-002,1.988507E-002,1.988507E-002,
   **   ~~~   ** Air System Named = CENTRAL SYSTEM did not converge for energy
   **   ~~~   ** Check values should be zero. Most Recent values listed first.
   **   ~~~   ** Demand-to-Supply interface energy check value iteration history trace: 390.194519,390.194519,390.194519,390.194519,390.194519,390.194519,390.194519,390.194519,390.194519,390.194519,
   **   ~~~   ** Supply-to-demand interface deck 1 energy check value iteration history trace: 717.390693,717.390693,717.390693,717.390693,717.390693,717.390693,717.390693,717.390693,717.390693,717.390693,
   ** Warning ** SimHVAC: Maximum iterations (20) exceeded for all HVAC loops, at ANNUAL, 03/21 23:30 - 23:45
   **   ~~~   ** The solution for one or more of the Air Loop HVAC systems did not appear to converge
   **   ~~~   ** Air System Named = CENTRAL SYSTEM did not converge for mass flow rate
   **   ~~~   ** Check values should be zero. Most Recent values listed first.
   **   ~~~   ** Demand-to-Supply interface mass flow rate check value iteration history trace: 6.952024E-002,6.952024E-002,6.952024E-002,6.952024E-002,6.952024E-002,6.952024E-002,6.952024E-002,6.952024E-002,6.952024E-002,6.952024E-002,
   **   ~~~   ** Supply-to-demand interface deck 1 mass flow rate check value iteration history trace: 6.952024E-002,6.952024E-002,6.952024E-002,6.952024E-002,6.952024E-002,6.952024E-002,6.952024E-002,6.952024E-002,6.952024E-002,6.952024E-002,
   **   ~~~   ** Air System Named = CENTRAL SYSTEM did not converge for energy
   **   ~~~   ** Check values should be zero. Most Recent values listed first.
   **   ~~~   ** Demand-to-Supply interface energy check value iteration history trace: 1309.950987,1309.950987,1309.950987,1309.950987,1309.950987,1309.950987,1309.950987,1309.950987,1309.950987,1309.950987,
   **   ~~~   ** Supply-to-demand interface deck 1 energy check value iteration history trace: 2086.930706,2086.930706,2086.930706,2086.930705,2086.930705,2086.930705,2086.930705,2086.930705,2086.930705,2086.930705,
   ** Warning ** SimHVAC: Maximum iterations (20) exceeded for all HVAC loops, at ANNUAL, 04/15 06:45 - 06:50
   **   ~~~   ** The solution for one or more of the Air Loop HVAC systems did not appear to converge
   **   ~~~   ** Air System Named = CENTRAL SYSTEM did not converge for mass flow rate
   **   ~~~   ** Check values should be zero. Most Recent values listed first.
   **   ~~~   ** Demand-to-Supply interface mass flow rate check value iteration history trace: 5.431392E-002,5.431392E-002,5.431392E-002,5.431392E-002,5.431392E-002,5.431392E-002,5.431392E-002,5.431392E-002,5.431392E-002,5.431392E-002,
   **   ~~~   ** Supply-to-demand interface deck 1 mass flow rate check value iteration history trace: 5.431392E-002,5.431392E-002,5.431392E-002,5.431392E-002,5.431392E-002,5.431392E-002,5.431392E-002,5.431392E-002,5.431392E-002,5.431392E-002,
   **   ~~~   ** Air System Named = CENTRAL SYSTEM did not converge for energy
   **   ~~~   ** Check values should be zero. Most Recent values listed first.
   **   ~~~   ** Demand-to-Supply interface energy check value iteration history trace: 1076.293115,1076.293115,1076.293115,1076.293115,1076.293115,1076.293115,1076.293115,1076.293115,1076.293115,1076.293115,
   **   ~~~   ** Supply-to-demand interface deck 1 energy check value iteration history trace: 1901.809694,1901.809693,1901.809693,1901.809693,1901.809693,1901.809693,1901.809693,1901.809693,1901.809693,1901.809693,
   ** Warning ** SimHVAC: Maximum iterations (20) exceeded for all HVAC loops, at ANNUAL, 04/28 04:45 - 04:52
   **   ~~~   ** The solution for one or more of the Air Loop HVAC systems did not appear to converge
   **   ~~~   ** Air System Named = CENTRAL SYSTEM did not converge for mass flow rate
   **   ~~~   ** Check values should be zero. Most Recent values listed first.
   **   ~~~   ** Demand-to-Supply interface mass flow rate check value iteration history trace: 5.834030E-002,5.834030E-002,5.834030E-002,5.834030E-002,5.834030E-002,5.834030E-002,5.834030E-002,5.834030E-002,5.834030E-002,5.834030E-002,
   **   ~~~   ** Supply-to-demand interface deck 1 mass flow rate check value iteration history trace: 5.834030E-002,5.834030E-002,5.834030E-002,5.834030E-002,5.834030E-002,5.834030E-002,5.834030E-002,5.834030E-002,5.834030E-002,5.834030E-002,
   **   ~~~   ** Air System Named = CENTRAL SYSTEM did not converge for energy
   **   ~~~   ** Check values should be zero. Most Recent values listed first.
   **   ~~~   ** Demand-to-Supply interface energy check value iteration history trace: 1091.220870,1091.220870,1091.220870,1091.220870,1091.220870,1091.220870,1091.220870,1091.220870,1091.220870,1091.220869,
   **   ~~~   ** Supply-to-demand interface deck 1 energy check value iteration history trace: 1915.143727,1915.143727,1915.143727,1915.143727,1915.143727,1915.143727,1915.143727,1915.143727,1915.143727,1915.143727,
   ** Warning ** SimHVAC: Maximum iterations (20) exceeded for all HVAC loops, at ANNUAL, 05/06 10:30 - 10:45
   **   ~~~   ** The solution for one or more of the Air Loop HVAC systems did not appear to converge
   **   ~~~   ** Air System Named = CENTRAL SYSTEM did not converge for mass flow rate
   **   ~~~   ** Check values should be zero. Most Recent values listed first.
   **   ~~~   ** Demand-to-Supply interface mass flow rate check value iteration history trace: 5.703092E-002,5.703092E-002,5.703092E-002,5.703092E-002,5.703092E-002,5.703092E-002,5.703092E-002,5.703092E-002,5.703092E-002,5.703092E-002,
   **   ~~~   ** Supply-to-demand interface deck 1 mass flow rate check value iteration history trace: 5.703092E-002,5.703092E-002,5.703092E-002,5.703092E-002,5.703092E-002,5.703092E-002,5.703092E-002,5.703092E-002,5.703092E-002,5.703092E-002,
   **   ~~~   ** Air System Named = CENTRAL SYSTEM did not converge for energy
   **   ~~~   ** Check values should be zero. Most Recent values listed first.
   **   ~~~   ** Demand-to-Supply interface energy check value iteration history trace: 1119.174132,1119.174132,1119.174132,1119.174132,1119.174131,1119.174131,1119.174131,1119.174131,1119.174131,1119.174131,
   **   ~~~   ** Supply-to-demand interface deck 1 energy check value iteration history trace: 1990.870657,1990.870657,1990.870657,1990.870657,1990.870657,1990.870656,1990.870656,1990.870656,1990.870656,1990.870656,
   ** Warning ** SimHVAC: Maximum iterations (20) exceeded for all HVAC loops, at ANNUAL, 05/18 08:40 - 08:45
   **   ~~~   ** The solution for one or more of the Air Loop HVAC systems did not appear to converge
   **   ~~~   ** Air System Named = CENTRAL SYSTEM did not converge for mass flow rate
   **   ~~~   ** Check values should be zero. Most Recent values listed first.
   **   ~~~   ** Demand-to-Supply interface mass flow rate check value iteration history trace: 0.283430,0.283430,0.283430,0.283430,0.283430,0.283430,0.283430,0.283430,0.283430,0.283430,
   **   ~~~   ** Supply-to-demand interface deck 1 mass flow rate check value iteration history trace: 0.283430,0.283430,0.283430,0.283430,0.283430,0.283430,0.283430,0.283430,0.283430,0.283430,
   **   ~~~   ** Air System Named = CENTRAL SYSTEM did not converge for energy
   **   ~~~   ** Check values should be zero. Most Recent values listed first.
   **   ~~~   ** Demand-to-Supply interface energy check value iteration history trace: 6801.611003,6801.611003,6801.611004,6801.611004,6801.611004,6801.611005,6801.611005,6801.611006,6801.611006,6801.611007,
   **   ~~~   ** Supply-to-demand interface deck 1 energy check value iteration history trace: 3318.976261,3318.976262,3318.976262,3318.976262,3318.976262,3318.976262,3318.976263,3318.976263,3318.976263,3318.976263,
   ** Warning ** SimHVAC: Maximum iterations (20) exceeded for all HVAC loops, at ANNUAL, 10/23 08:45 - 09:00
   **   ~~~   ** The solution for one or more of the Air Loop HVAC systems did not appear to converge
   **   ~~~   ** Air System Named = CENTRAL SYSTEM did not converge for mass flow rate
   **   ~~~   ** Check values should be zero. Most Recent values listed first.
   **   ~~~   ** Demand-to-Supply interface mass flow rate check value iteration history trace: 5.677995E-002,5.677995E-002,5.677995E-002,5.677995E-002,5.677995E-002,5.677995E-002,5.677995E-002,5.677995E-002,5.677995E-002,5.677995E-002,
   **   ~~~   ** Supply-to-demand interface deck 1 mass flow rate check value iteration history trace: 5.677995E-002,5.677995E-002,5.677995E-002,5.677995E-002,5.677995E-002,5.677995E-002,5.677995E-002,5.677995E-002,5.677995E-002,5.677995E-002,
   **   ~~~   ** Air System Named = CENTRAL SYSTEM did not converge for energy
   **   ~~~   ** Check values should be zero. Most Recent values listed first.
   **   ~~~   ** Demand-to-Supply interface energy check value iteration history trace: 1124.264142,1124.264141,1124.264141,1124.264141,1124.264141,1124.264141,1124.264141,1124.264141,1124.264141,1124.264141,
   **   ~~~   ** Supply-to-demand interface deck 1 energy check value iteration history trace: 1955.628791,1955.628791,1955.628791,1955.628791,1955.628791,1955.628790,1955.628790,1955.628790,1955.628790,1955.628790,
   ** Warning ** SimHVAC: Maximum iterations (20) exceeded for all HVAC loops, at ANNUAL, 10/30 05:45 - 06:00
   **   ~~~   ** The solution for one or more of the Air Loop HVAC systems did not appear to converge
   **   ~~~   ** Air System Named = CENTRAL SYSTEM did not converge for mass flow rate
   **   ~~~   ** Check values should be zero. Most Recent values listed first.
   **   ~~~   ** Demand-to-Supply interface mass flow rate check value iteration history trace: 7.019045E-002,7.019045E-002,7.019045E-002,7.019045E-002,7.019045E-002,7.019045E-002,7.019045E-002,7.019045E-002,7.019045E-002,7.019045E-002,
   **   ~~~   ** Supply-to-demand interface deck 1 mass flow rate check value iteration history trace: 7.019045E-002,7.019045E-002,7.019045E-002,7.019045E-002,7.019045E-002,7.019045E-002,7.019045E-002,7.019045E-002,7.019045E-002,7.019045E-002,
   **   ~~~   ** Air System Named = CENTRAL SYSTEM did not converge for energy
   **   ~~~   ** Check values should be zero. Most Recent values listed first.
   **   ~~~   ** Demand-to-Supply interface energy check value iteration history trace: 1393.860870,1393.860870,1393.860870,1393.860870,1393.860870,1393.860870,1393.860870,1393.860870,1393.860870,1393.860870,
   **   ~~~   ** Supply-to-demand interface deck 1 energy check value iteration history trace: 2394.972119,2394.972119,2394.972119,2394.972118,2394.972118,2394.972118,2394.972118,2394.972118,2394.972118,2394.972118,
   ** Warning ** SimHVAC: Maximum iterations (20) exceeded for all HVAC loops, at ANNUAL, 12/18 18:00 - 18:15
   **   ~~~   ** The solution for one or more of the Air Loop HVAC systems did not appear to converge
   **   ~~~   ** Air System Named = CENTRAL SYSTEM did not converge for mass flow rate
   **   ~~~   ** Check values should be zero. Most Recent values listed first.
   **   ~~~   ** Demand-to-Supply interface mass flow rate check value iteration history trace: 4.493103E-002,4.493103E-002,4.493103E-002,4.493103E-002,4.493103E-002,4.493103E-002,4.493103E-002,4.493103E-002,4.493103E-002,4.493103E-002,
   **   ~~~   ** Supply-to-demand interface deck 1 mass flow rate check value iteration history trace: 4.493103E-002,4.493103E-002,4.493103E-002,4.493103E-002,4.493103E-002,4.493103E-002,4.493103E-002,4.493103E-002,4.493103E-002,4.493103E-002,
   **   ~~~   ** Air System Named = CENTRAL SYSTEM did not converge for energy
   **   ~~~   ** Check values should be zero. Most Recent values listed first.
   **   ~~~   ** Demand-to-Supply interface energy check value iteration history trace: 890.375914,890.375914,890.375914,890.375914,890.375914,890.375914,890.375914,890.375914,890.375914,890.375914,
   **   ~~~   ** Supply-to-demand interface deck 1 energy check value iteration history trace: 1486.629867,1486.629867,1486.629867,1486.629867,1486.629867,1486.629867,1486.629866,1486.629866,1486.629866,1486.629866,
   ************* Simulation Error Summary *************
   ** Warning ** The following Report Variables were requested but not generated -- check.rdd file
   **   ~~~   ** Either the IDF did not contain these elements, the variable name is misspelled,
   **   ~~~   ** or the requested variable is an advanced output which requires Output : Diagnostics, DisplayAdvancedReportVariables;
   ************* Key=*, VarName=BASEBOARD TOTAL HEATING ENERGY, Frequency=
   ************* Key=*, VarName=WATER HEATER NATURALGAS ENERGY, Frequency=
   ************* Key=*, VarName=COOLING COIL TOTAL HEATING ENERGY, Frequency=
   ************* There are 34 unused schedules in input.
   ************* There are 388 unused week schedules in input.
   ************* There are 396 unused day schedules in input.
   ************* Use Output:Diagnostics,DisplayUnusedSchedules; to see them.
   *************
   ************* ===== Recurring Error Summary =====
   ************* The following recurring error messages occurred.
   *************
   *************  ** Warning ** "TOTAL HOT WATER LOAD" - Target water temperature should be less than or equal to the hot water temperature error continues...
   *************  **   ~~~   **   This error occurred 61183 total times;
   *************  **   ~~~   **   during Warmup 0 times;
   *************  **   ~~~   **   during Sizing 0 times.
   *************  **   ~~~   **   Max=6.540004  Min=8.447735E-004
   *************
   *************
   ************* ===== Final Error Summary =====
   ************* The following error categories occurred.  Consider correcting or noting.
   ************* Nominally Unused Constructions
   ************* ..The nominally unused constructions warning is provided to alert you to potential conditions that can cause
   ************* ..extra time during simulation. Each construction is calculated by the algorithm indicated in the HeatBalanceAlgorithm
   ************* ..object. You may remove the constructions indicated (when you use the DisplayExtraWarnings option).
   *************
   ************* EnergyPlus Warmup Error Summary. During Warmup: 1 Warning; 0 Severe Errors.
   ************* EnergyPlus Sizing Error Summary. During Sizing: 4 Warning; 0 Severe Errors.
   ************* EnergyPlus Completed Successfully-- 61210 Warning; 0 Severe Errors; Elapsed Time=00hr 01min 30.62sec
