Program Version,EnergyPlus, Version 22.2.0-c249759bad, YMD=2023.09.01 17:30,
   ************* Beginning Zone Sizing Calculations
   ** Warning ** ProcessScheduleInput: Schedule:Constant="ALWAYS ON DISCRETE", Schedule Type Limits Name="ONOFF" not found -- will not be validated
   ** Warning ** Foundation:Kiva="KIVA FOUNDATION", no Interior Horizontal Insulation Material Name defined
   **   ~~~   ** Interior Horizontal Insulation Depth will not be used.
   ** Warning ** CheckUsedConstructions: There are 15 nominally unused constructions in input.
   **   ~~~   ** Each Unused construction is shown.
   ************* Construction=INTERIOR FLOOR
   ************* Construction=INTERIOR WINDOW
   ************* Construction=EXTERIOR DOOR
   ************* Construction=INTERIOR DOOR
   ************* Construction=GABLE CONSTRUCTION
   ************* Construction=CRAWL_FLOOR
   ************* Construction=INSULATED PIPE
   ************* Construction=PLAIN PIPE
   ************* Construction=TDD PIPE
   ************* Construction=TDD DOME
   ************* Construction=TDD DIFFUSER
   ************* Construction=CRAWL WALL
   ************* Construction=CEILING-FLOOR-LAYER
   ************* Construction=SLAB CONSTRUCTION W FULL R10 INSULATION
   ************* Construction=SLAB CONSTRUCTION W FULL R5 INSULATION
   ** Warning ** GetDXCoils: Coil:Heating:DX:SingleSpeed="DX_HEATING_COIL" curve values
   **   ~~~   ** ... Defrost Energy Input Ratio Function of Temperature Curve Name = DEFROSTEIR output is not equal to 1.0 (+ or - 10%) at rated conditions.
   **   ~~~   ** ... Curve output at rated conditions = 0.152
   ** Warning ** Temperature out of range [-100. to 200.] (PsyPsatFnTemp)
   **   ~~~   **  Routine=PsyTwbFnTdbWPb, During Sizing, Environment=EXTREME_WINTER, at Simulation time=12/24 13:45 - 13:49
   **   ~~~   **  Input Temperature=-496.13
   ************* Beginning System Sizing Calculations
   ************* Beginning Plant Sizing Calculations
   ** Warning ** SizeDXCoil Coil:Cooling:DX:SingleSpeed DX_COOLING_COIL
   **   ~~~   ** ...Gross Rated Total Cooling Capacity [W] will be limited by the maximum rated volume flow per rated total capacity ratio.
   **   ~~~   ** ...DX coil volume flow rate ( m3/s ) = 0.553347
   **   ~~~   ** ...Requested capacity ( W ) = 7243.017
   **   ~~~   ** ...Requested flow/capacity ratio ( m3/s/W ) = 7.639E-005
   **   ~~~   ** ...Maximum flow/capacity ratio ( m3/s/W ) = 6.041E-005
   **   ~~~   ** ...Adjusted capacity ( W ) = 9159.863
   ** Warning ** Coil:WaterHeating:AirToWaterHeatPump:Wrapped "HEAT PUMP WATER HEATER EVAPORATOR": Rated air volume flow rate per watt of rated total water heating capacity is out of range
   **   ~~~   ** Min Rated Vol Flow Per Watt=[4.027E-005], Rated Vol Flow Per Watt=[1.510E-004], Max Rated Vol Flow Per Watt=[8.056E-005]. See Input-Output Reference Manual for valid range.
   ************* SizeFan: : Potential issue with equipment sizing for Fan:OnOff HEAT PUMP WATER HEATER FAN
   **   ~~~   ** User-Specified Maximum Flow Rate [m3/s] = 0.22653
   **   ~~~   ** differs from Design Size Maximum Flow Rate [m3/s] = 7.55250E-002
   **   ~~~   ** This may, or may not, indicate mismatched component sizes.
   **   ~~~   ** Verify that the value entered is intended and is consistent with other components.
   ** Warning ** Water heater = WATER HEATER TANK:  Recovery Efficiency and Energy Factor could not be calculated during the test for standard ratings
   **   ~~~   ** Setpoint was never recovered and/or heater never turned on
   ** Warning ** Check input. Pump nominal power or motor efficiency is set to 0, for pump=MAINS PRESSURE
   ** Warning ** Output:Meter: invalid Key Name="ELECTRIC_RANGE:INTERIOREQUIPMENT:ELECTRICITY" - not found.
   ** Warning ** Output:Meter: invalid Key Name="ELECTRIC_DRYER:INTERIOREQUIPMENT:ELECTRICITY" - not found.
   ** Warning ** Output:Meter: invalid Key Name="HEATRECOVERY:ELECTRICITY" - not found.
   ** Warning ** Output:Meter: invalid Key Name="HEATING:NATURALGAS" - not found.
   ** Warning ** Output:Meter: invalid Key Name="WATERSYSTEMS:NATURALGAS" - not found.
   ** Warning ** Output:Meter: invalid Key Name="PROPANE:FACILITY" - not found.
   ** Warning ** Output:Meter: invalid Key Name="HEATING:PROPANE" - not found.
   ************* Testing Individual Branch Integrity
   ************* All Branches passed integrity testing
   ************* Testing Individual Supply Air Path Integrity
   ************* All Supply Air Paths passed integrity testing
   ************* Testing Individual Return Air Path Integrity
   ************* All Return Air Paths passed integrity testing
   ************* No node connection errors were found.
   ************* Beginning Simulation
   ** Warning ** AirflowNetwork::Solver::validate_distribution: Heat pump water heater is simulated along with an AirflowNetwork but is not included in the AirflowNetwork.
   ** Warning ** CalcEquipmentFlowRates: "TOTAL HOT WATER LOAD" - Target water temperature is greater than the hot water temperature by (1.08E-003 C)
   **   ~~~   **  Environment=EXTREME_WINTER, at Simulation time=12/22 06:00 - 06:15
   **   ~~~   ** ...target water temperature     = 53.33 C
   **   ~~~   ** ...hot water temperature        = 53.33 C
   **   ~~~   ** ...Target water temperature should be less than or equal to the hot water temperature. Verify temperature setpoints and schedules.
   ** Warning ** SimHVAC: Maximum iterations (20) exceeded for all HVAC loops, at EXTREME_WINTER, 01/03 12:45 - 13:00
   **   ~~~   ** The solution for one or more of the Air Loop HVAC systems did not appear to converge
   **   ~~~   ** Air System Named = CENTRAL SYSTEM did not converge for mass flow rate
   **   ~~~   ** Check values should be zero. Most Recent values listed first.
   **   ~~~   ** Demand-to-Supply interface mass flow rate check value iteration history trace: 5.245933E-002,5.245933E-002,5.245933E-002,5.245933E-002,5.245933E-002,5.245933E-002,5.245933E-002,5.245933E-002,5.245933E-002,5.245933E-002,
   **   ~~~   ** Supply-to-demand interface deck 1 mass flow rate check value iteration history trace: 5.245933E-002,5.245933E-002,5.245933E-002,5.245933E-002,5.245933E-002,5.245933E-002,5.245933E-002,5.245933E-002,5.245933E-002,5.245933E-002,
   **   ~~~   ** Air System Named = CENTRAL SYSTEM did not converge for energy
   **   ~~~   ** Check values should be zero. Most Recent values listed first.
   **   ~~~   ** Demand-to-Supply interface energy check value iteration history trace: 1039.589180,1039.589180,1039.589180,1039.589179,1039.589179,1039.589179,1039.589179,1039.589179,1039.589179,1039.589179,
   **   ~~~   ** Supply-to-demand interface deck 1 energy check value iteration history trace: 1696.052987,1696.052987,1696.052987,1696.052987,1696.052987,1696.052987,1696.052987,1696.052987,1696.052987,1696.052987,
   ** Warning ** SimHVAC: Maximum iterations (20) exceeded for all HVAC loops, at EXTREME_WINTER, 01/04 10:45 - 11:00
   **   ~~~   ** The solution for one or more of the Air Loop HVAC systems did not appear to converge
   **   ~~~   ** Air System Named = CENTRAL SYSTEM did not converge for mass flow rate
   **   ~~~   ** Check values should be zero. Most Recent values listed first.
   **   ~~~   ** Demand-to-Supply interface mass flow rate check value iteration history trace: 7.713407E-002,7.713407E-002,7.713407E-002,7.713407E-002,7.713407E-002,7.713407E-002,7.713407E-002,7.713407E-002,7.713407E-002,7.713407E-002,
   **   ~~~   ** Supply-to-demand interface deck 1 mass flow rate check value iteration history trace: 7.713407E-002,7.713407E-002,7.713407E-002,7.713407E-002,7.713407E-002,7.713407E-002,7.713407E-002,7.713407E-002,7.713407E-002,7.713407E-002,
   **   ~~~   ** Air System Named = CENTRAL SYSTEM did not converge for energy
   **   ~~~   ** Check values should be zero. Most Recent values listed first.
   **   ~~~   ** Demand-to-Supply interface energy check value iteration history trace: 1528.582503,1528.582503,1528.582503,1528.582503,1528.582503,1528.582503,1528.582503,1528.582503,1528.582503,1528.582502,
   **   ~~~   ** Supply-to-demand interface deck 1 energy check value iteration history trace: 2480.690731,2480.690730,2480.690730,2480.690730,2480.690730,2480.690730,2480.690730,2480.690730,2480.690730,2480.690729,
   ** Severe  ** CheckWarmupConvergence: Loads Initialization, Zone="LIVING" did not converge after 25 warmup days.
   **   ~~~   ** See Warmup Convergence Information in .eio file for details.
   **   ~~~   ** ...Environment(RunPeriod)="ANNUAL"
   **   ~~~   ** ..Max Temp Comparison = 5.14E-002 vs Temperature Convergence Tolerance=5.00E-002 - Fail Convergence
   **   ~~~   ** ..Min Temp Comparison = 4.12E-003 vs Temperature Convergence Tolerance=5.00E-002 - Pass Convergence
   **   ~~~   ** ..Max Heat Load Comparison = 1.2293E-004 vs Loads Convergence Tolerance=5.00E-002 - Pass Convergence
   **   ~~~   ** ..Max Cool Load Comparison = 0.1117 vs Loads Convergence Tolerance=5.00E-002 - Fail Convergence
   ** Warning ** SimHVAC: Maximum iterations (20) exceeded for all HVAC loops, at ANNUAL, 01/07 11:00 - 11:15
   **   ~~~   ** The solution for one or more of the Air Loop HVAC systems did not appear to converge
   **   ~~~   ** Air System Named = CENTRAL SYSTEM did not converge for mass flow rate
   **   ~~~   ** Check values should be zero. Most Recent values listed first.
   **   ~~~   ** Demand-to-Supply interface mass flow rate check value iteration history trace: 6.421102E-002,6.421102E-002,6.421102E-002,6.421102E-002,6.421102E-002,6.421102E-002,6.421102E-002,6.421102E-002,6.421102E-002,6.421102E-002,
   **   ~~~   ** Supply-to-demand interface deck 1 mass flow rate check value iteration history trace: 6.421102E-002,6.421102E-002,6.421102E-002,6.421102E-002,6.421102E-002,6.421102E-002,6.421102E-002,6.421102E-002,6.421102E-002,6.421102E-002,
   **   ~~~   ** Air System Named = CENTRAL SYSTEM did not converge for energy
   **   ~~~   ** Check values should be zero. Most Recent values listed first.
   **   ~~~   ** Demand-to-Supply interface energy check value iteration history trace: 1272.459016,1272.459016,1272.459016,1272.459016,1272.459016,1272.459015,1272.459015,1272.459015,1272.459015,1272.459015,
   **   ~~~   ** Supply-to-demand interface deck 1 energy check value iteration history trace: 2116.919176,2116.919175,2116.919175,2116.919175,2116.919175,2116.919175,2116.919175,2116.919175,2116.919175,2116.919175,
   ** Warning ** SimHVAC: Maximum iterations (20) exceeded for all HVAC loops, at ANNUAL, 01/10 14:30 - 14:45
   **   ~~~   ** The solution for one or more of the Air Loop HVAC systems did not appear to converge
   **   ~~~   ** Air System Named = CENTRAL SYSTEM did not converge for mass flow rate
   **   ~~~   ** Check values should be zero. Most Recent values listed first.
   **   ~~~   ** Demand-to-Supply interface mass flow rate check value iteration history trace: 4.102048E-002,4.102048E-002,4.102048E-002,4.102048E-002,4.102048E-002,4.102048E-002,4.102048E-002,4.102048E-002,4.102048E-002,4.102048E-002,
   **   ~~~   ** Supply-to-demand interface deck 1 mass flow rate check value iteration history trace: 4.102048E-002,4.102048E-002,4.102048E-002,4.102048E-002,4.102048E-002,4.102048E-002,4.102048E-002,4.102048E-002,4.102048E-002,4.102048E-002,
   **   ~~~   ** Air System Named = CENTRAL SYSTEM did not converge for energy
   **   ~~~   ** Check values should be zero. Most Recent values listed first.
   **   ~~~   ** Demand-to-Supply interface energy check value iteration history trace: 812.371057,812.371057,812.371057,812.371057,812.371057,812.371057,812.371057,812.371057,812.371056,812.371056,
   **   ~~~   ** Supply-to-demand interface deck 1 energy check value iteration history trace: 1325.559486,1325.559486,1325.559486,1325.559486,1325.559486,1325.559486,1325.559485,1325.559485,1325.559485,1325.559485,
   ** Warning ** SimHVAC: Maximum iterations (20) exceeded for all HVAC loops, at ANNUAL, 02/26 17:30 - 17:45
   **   ~~~   ** The solution for one or more of the Air Loop HVAC systems did not appear to converge
   **   ~~~   ** Air System Named = CENTRAL SYSTEM did not converge for mass flow rate
   **   ~~~   ** Check values should be zero. Most Recent values listed first.
   **   ~~~   ** Demand-to-Supply interface mass flow rate check value iteration history trace: 6.700069E-002,6.700069E-002,6.700069E-002,6.700069E-002,6.700069E-002,6.700069E-002,6.700069E-002,6.700069E-002,6.700069E-002,6.700069E-002,
   **   ~~~   ** Supply-to-demand interface deck 1 mass flow rate check value iteration history trace: 6.700069E-002,6.700069E-002,6.700069E-002,6.700069E-002,6.700069E-002,6.700069E-002,6.700069E-002,6.700069E-002,6.700069E-002,6.700069E-002,
   **   ~~~   ** Air System Named = CENTRAL SYSTEM did not converge for energy
   **   ~~~   ** Check values should be zero. Most Recent values listed first.
   **   ~~~   ** Demand-to-Supply interface energy check value iteration history trace: 1327.703199,1327.703199,1327.703199,1327.703198,1327.703198,1327.703198,1327.703197,1327.703197,1327.703197,1327.703197,
   **   ~~~   ** Supply-to-demand interface deck 1 energy check value iteration history trace: 2163.488082,2163.488082,2163.488081,2163.488081,2163.488080,2163.488080,2163.488079,2163.488079,2163.488079,2163.488078,
   ** Warning ** SimHVAC: Maximum iterations (20) exceeded for all HVAC loops, at ANNUAL, 03/06 09:25 - 09:27
   **   ~~~   ** The solution for one or more of the Air Loop HVAC systems did not appear to converge
   **   ~~~   ** Air System Named = CENTRAL SYSTEM did not converge for mass flow rate
   **   ~~~   ** Check values should be zero. Most Recent values listed first.
   **   ~~~   ** Demand-to-Supply interface mass flow rate check value iteration history trace: 5.119903E-002,5.119903E-002,5.119903E-002,5.119903E-002,5.119903E-002,5.119903E-002,5.119903E-002,5.119903E-002,5.119903E-002,5.119903E-002,
   **   ~~~   ** Supply-to-demand interface deck 1 mass flow rate check value iteration history trace: 5.119903E-002,5.119903E-002,5.119903E-002,5.119903E-002,5.119903E-002,5.119903E-002,5.119903E-002,5.119903E-002,5.119903E-002,5.119903E-002,
   **   ~~~   ** Air System Named = CENTRAL SYSTEM did not converge for energy
   **   ~~~   ** Check values should be zero. Most Recent values listed first.
   **   ~~~   ** Demand-to-Supply interface energy check value iteration history trace: 1011.124426,1011.124426,1011.124426,1011.124426,1011.124426,1011.124426,1011.124426,1011.124426,1011.124426,1011.124426,
   **   ~~~   ** Supply-to-demand interface deck 1 energy check value iteration history trace: 1708.793194,1708.793194,1708.793194,1708.793194,1708.793194,1708.793193,1708.793193,1708.793193,1708.793193,1708.793193,
   ** Warning ** SimHVAC: Maximum iterations (20) exceeded for all HVAC loops, at ANNUAL, 03/07 05:30 - 05:45
   **   ~~~   ** The solution for one or more of the Air Loop HVAC systems did not appear to converge
   **   ~~~   ** Air System Named = CENTRAL SYSTEM did not converge for mass flow rate
   **   ~~~   ** Check values should be zero. Most Recent values listed first.
   **   ~~~   ** Demand-to-Supply interface mass flow rate check value iteration history trace: 4.552009E-002,4.552009E-002,4.552009E-002,4.552009E-002,4.552009E-002,4.552009E-002,4.552009E-002,4.552009E-002,4.552009E-002,4.552009E-002,
   **   ~~~   ** Supply-to-demand interface deck 1 mass flow rate check value iteration history trace: 4.552009E-002,4.552009E-002,4.552009E-002,4.552009E-002,4.552009E-002,4.552009E-002,4.552009E-002,4.552009E-002,4.552009E-002,4.552009E-002,
   **   ~~~   ** Air System Named = CENTRAL SYSTEM did not converge for energy
   **   ~~~   ** Check values should be zero. Most Recent values listed first.
   **   ~~~   ** Demand-to-Supply interface energy check value iteration history trace: 902.270025,902.270025,902.270024,902.270024,902.270024,902.270024,902.270024,902.270024,902.270024,902.270024,
   **   ~~~   ** Supply-to-demand interface deck 1 energy check value iteration history trace: 1627.706080,1627.706080,1627.706080,1627.706080,1627.706080,1627.706080,1627.706080,1627.706080,1627.706080,1627.706080,
   ** Warning ** SimHVAC: Maximum iterations (20) exceeded for all HVAC loops, at ANNUAL, 03/08 08:30 - 08:45
   **   ~~~   ** The solution for one or more of the Air Loop HVAC systems did not appear to converge
   **   ~~~   ** Air System Named = CENTRAL SYSTEM did not converge for mass flow rate
   **   ~~~   ** Check values should be zero. Most Recent values listed first.
   **   ~~~   ** Demand-to-Supply interface mass flow rate check value iteration history trace: 4.840500E-002,4.840500E-002,4.840500E-002,4.840500E-002,4.840500E-002,4.840500E-002,4.840500E-002,4.840500E-002,4.840500E-002,4.840500E-002,
   **   ~~~   ** Supply-to-demand interface deck 1 mass flow rate check value iteration history trace: 4.840500E-002,4.840500E-002,4.840500E-002,4.840500E-002,4.840500E-002,4.840500E-002,4.840500E-002,4.840500E-002,4.840500E-002,4.840500E-002,
   **   ~~~   ** Air System Named = CENTRAL SYSTEM did not converge for energy
   **   ~~~   ** Check values should be zero. Most Recent values listed first.
   **   ~~~   ** Demand-to-Supply interface energy check value iteration history trace: 959.207041,959.207041,959.207041,959.207041,959.207041,959.207041,959.207041,959.207041,959.207041,959.207041,
   **   ~~~   ** Supply-to-demand interface deck 1 energy check value iteration history trace: 1799.363672,1799.363672,1799.363672,1799.363672,1799.363672,1799.363672,1799.363672,1799.363672,1799.363672,1799.363672,
   ** Warning ** SimHVAC: Maximum iterations (20) exceeded for all HVAC loops, at ANNUAL, 03/09 08:32 - 08:34
   **   ~~~   ** The solution for one or more of the Air Loop HVAC systems did not appear to converge
   **   ~~~   ** Air System Named = CENTRAL SYSTEM did not converge for mass flow rate
   **   ~~~   ** Check values should be zero. Most Recent values listed first.
   **   ~~~   ** Demand-to-Supply interface mass flow rate check value iteration history trace: 6.802124E-002,6.802124E-002,6.802124E-002,6.802124E-002,6.802124E-002,6.802124E-002,6.802124E-002,6.802124E-002,6.802124E-002,6.802124E-002,
   **   ~~~   ** Supply-to-demand interface deck 1 mass flow rate check value iteration history trace: 6.802124E-002,6.802124E-002,6.802124E-002,6.802124E-002,6.802124E-002,6.802124E-002,6.802124E-002,6.802124E-002,6.802124E-002,6.802124E-002,
   **   ~~~   ** Air System Named = CENTRAL SYSTEM did not converge for energy
   **   ~~~   ** Check values should be zero. Most Recent values listed first.
   **   ~~~   ** Demand-to-Supply interface energy check value iteration history trace: 1342.871010,1342.871010,1342.871010,1342.871010,1342.871010,1342.871010,1342.871009,1342.871009,1342.871009,1342.871009,
   **   ~~~   ** Supply-to-demand interface deck 1 energy check value iteration history trace: 2239.995376,2239.995376,2239.995376,2239.995376,2239.995375,2239.995375,2239.995375,2239.995375,2239.995375,2239.995375,
   ** Warning ** SimHVAC: Maximum iterations (20) exceeded for all HVAC loops, at ANNUAL, 03/10 07:55 - 08:00
   **   ~~~   ** The solution for one or more of the Air Loop HVAC systems did not appear to converge
   **   ~~~   ** Air System Named = CENTRAL SYSTEM did not converge for mass flow rate
   **   ~~~   ** Check values should be zero. Most Recent values listed first.
   **   ~~~   ** Demand-to-Supply interface mass flow rate check value iteration history trace: 5.120105E-002,5.120105E-002,5.120105E-002,5.120105E-002,5.120105E-002,5.120105E-002,5.120105E-002,5.120105E-002,5.120105E-002,5.120105E-002,
   **   ~~~   ** Supply-to-demand interface deck 1 mass flow rate check value iteration history trace: 5.120105E-002,5.120105E-002,5.120105E-002,5.120105E-002,5.120105E-002,5.120105E-002,5.120105E-002,5.120105E-002,5.120105E-002,5.120105E-002,
   **   ~~~   ** Air System Named = CENTRAL SYSTEM did not converge for energy
   **   ~~~   ** Check values should be zero. Most Recent values listed first.
   **   ~~~   ** Demand-to-Supply interface energy check value iteration history trace: 1014.614060,1014.614060,1014.614060,1014.614059,1014.614059,1014.614059,1014.614059,1014.614059,1014.614059,1014.614059,
   **   ~~~   ** Supply-to-demand interface deck 1 energy check value iteration history trace: 1908.183805,1908.183805,1908.183805,1908.183805,1908.183805,1908.183804,1908.183804,1908.183804,1908.183804,1908.183804,
   ** Warning ** SimHVAC: Maximum iterations (20) exceeded for all HVAC loops, at ANNUAL, 03/24 08:00 - 08:15
   **   ~~~   ** The solution for one or more of the Air Loop HVAC systems did not appear to converge
   **   ~~~   ** Air System Named = CENTRAL SYSTEM did not converge for mass flow rate
   **   ~~~   ** Check values should be zero. Most Recent values listed first.
   **   ~~~   ** Demand-to-Supply interface mass flow rate check value iteration history trace: 6.491062E-002,6.491062E-002,6.491062E-002,6.491062E-002,6.491062E-002,6.491062E-002,6.491062E-002,6.491062E-002,6.491062E-002,6.491062E-002,
   **   ~~~   ** Supply-to-demand interface deck 1 mass flow rate check value iteration history trace: 6.491062E-002,6.491062E-002,6.491062E-002,6.491062E-002,6.491062E-002,6.491062E-002,6.491062E-002,6.491062E-002,6.491062E-002,6.491062E-002,
   **   ~~~   ** Air System Named = CENTRAL SYSTEM did not converge for energy
   **   ~~~   ** Check values should be zero. Most Recent values listed first.
   **   ~~~   ** Demand-to-Supply interface energy check value iteration history trace: 1286.040692,1286.040692,1286.040692,1286.040692,1286.040692,1286.040692,1286.040692,1286.040692,1286.040692,1286.040692,
   **   ~~~   ** Supply-to-demand interface deck 1 energy check value iteration history trace: 2018.849544,2018.849544,2018.849544,2018.849544,2018.849544,2018.849544,2018.849543,2018.849543,2018.849543,2018.849543,
   ** Warning ** SimHVAC: Maximum iterations (20) exceeded for all HVAC loops, at ANNUAL, 03/31 08:00 - 08:02
   **   ~~~   ** The solution for one or more of the Air Loop HVAC systems did not appear to converge
   **   ~~~   ** Air System Named = CENTRAL SYSTEM did not converge for mass flow rate
   **   ~~~   ** Check values should be zero. Most Recent values listed first.
   **   ~~~   ** Demand-to-Supply interface mass flow rate check value iteration history trace: 7.147946E-002,7.147946E-002,7.147946E-002,7.147946E-002,7.147946E-002,7.147946E-002,7.147946E-002,7.147946E-002,7.147946E-002,7.147946E-002,
   **   ~~~   ** Supply-to-demand interface deck 1 mass flow rate check value iteration history trace: 7.147946E-002,7.147946E-002,7.147946E-002,7.147946E-002,7.147946E-002,7.147946E-002,7.147946E-002,7.147946E-002,7.147946E-002,7.147946E-002,
   **   ~~~   ** Air System Named = CENTRAL SYSTEM did not converge for energy
   **   ~~~   ** Check values should be zero. Most Recent values listed first.
   **   ~~~   ** Demand-to-Supply interface energy check value iteration history trace: 1413.536213,1413.536213,1413.536213,1413.536213,1413.536212,1413.536212,1413.536212,1413.536212,1413.536212,1413.536212,
   **   ~~~   ** Supply-to-demand interface deck 1 energy check value iteration history trace: 2294.492392,2294.492392,2294.492392,2294.492392,2294.492392,2294.492392,2294.492392,2294.492391,2294.492391,2294.492391,
   ** Warning ** SimHVAC: Maximum iterations (20) exceeded for all HVAC loops, at ANNUAL, 04/02 09:00 - 09:05
   **   ~~~   ** The solution for one or more of the Air Loop HVAC systems did not appear to converge
   **   ~~~   ** Air System Named = CENTRAL SYSTEM did not converge for mass flow rate
   **   ~~~   ** Check values should be zero. Most Recent values listed first.
   **   ~~~   ** Demand-to-Supply interface mass flow rate check value iteration history trace: 7.464855E-002,7.464855E-002,7.464855E-002,7.464855E-002,7.464854E-002,7.464854E-002,7.464854E-002,7.464854E-002,7.464854E-002,7.464854E-002,
   **   ~~~   ** Supply-to-demand interface deck 1 mass flow rate check value iteration history trace: 7.464855E-002,7.464855E-002,7.464855E-002,7.464855E-002,7.464854E-002,7.464854E-002,7.464854E-002,7.464854E-002,7.464854E-002,7.464854E-002,
   **   ~~~   ** Air System Named = CENTRAL SYSTEM did not converge for energy
   **   ~~~   ** Check values should be zero. Most Recent values listed first.
   **   ~~~   ** Demand-to-Supply interface energy check value iteration history trace: 1475.280668,1475.280668,1475.280668,1475.280668,1475.280668,1475.280668,1475.280668,1475.280668,1475.280668,1475.280668,
   **   ~~~   ** Supply-to-demand interface deck 1 energy check value iteration history trace: 2466.453606,2466.453606,2466.453605,2466.453605,2466.453605,2466.453605,2466.453605,2466.453605,2466.453605,2466.453605,
   ** Warning ** SimHVAC: Maximum iterations (20) exceeded for all HVAC loops, at ANNUAL, 04/29 20:38 - 20:45
   **   ~~~   ** The solution for one or more of the Air Loop HVAC systems did not appear to converge
   **   ~~~   ** Air System Named = CENTRAL SYSTEM did not converge for mass flow rate
   **   ~~~   ** Check values should be zero. Most Recent values listed first.
   **   ~~~   ** Demand-to-Supply interface mass flow rate check value iteration history trace: 9.078675E-002,9.078675E-002,9.078675E-002,9.078675E-002,9.078675E-002,9.078675E-002,9.078675E-002,9.078675E-002,9.078675E-002,9.078675E-002,
   **   ~~~   ** Supply-to-demand interface deck 1 mass flow rate check value iteration history trace: 9.078675E-002,9.078675E-002,9.078675E-002,9.078675E-002,9.078675E-002,9.078675E-002,9.078675E-002,9.078675E-002,9.078675E-002,9.078675E-002,
   **   ~~~   ** Air System Named = CENTRAL SYSTEM did not converge for energy
   **   ~~~   ** Check values should be zero. Most Recent values listed first.
   **   ~~~   ** Demand-to-Supply interface energy check value iteration history trace: 2155.857805,2155.857805,2155.857805,2155.857805,2155.857805,2155.857805,2155.857805,2155.857806,2155.857806,2155.857806,
   **   ~~~   ** Supply-to-demand interface deck 1 energy check value iteration history trace: 540.333471,540.333471,540.333472,540.333472,540.333472,540.333472,540.333472,540.333472,540.333472,540.333472,
   ************* Simulation Error Summary *************
   ** Warning ** The following Report Variables were requested but not generated -- check.rdd file
   **   ~~~   ** Either the IDF did not contain these elements, the variable name is misspelled,
   **   ~~~   ** or the requested variable is an advanced output which requires Output : Diagnostics, DisplayAdvancedReportVariables;
   ************* Key=*, VarName=BASEBOARD TOTAL HEATING ENERGY, Frequency=
   ************* Key=*, VarName=WATER HEATER NATURALGAS ENERGY, Frequency=
   ************* Key=*, VarName=COOLING COIL TOTAL HEATING ENERGY, Frequency=
   ************* There are 34 unused schedules in input.
   ************* There are 388 unused week schedules in input.
   ************* There are 396 unused day schedules in input.
   ************* Use Output:Diagnostics,DisplayUnusedSchedules; to see them.
   *************
   ************* ===== Recurring Error Summary =====
   ************* The following recurring error messages occurred.
   *************
   *************  ** Warning ** Temperature out of range [-100. to 200.] (PsyPsatFnTemp)
   *************  **   ~~~   **   This error occurred 2 total times;
   *************  **   ~~~   **   during Warmup 0 times;
   *************  **   ~~~   **   during Sizing 1 times.
   *************  **   ~~~   **   Max=-496.13501 C  Min=-496.13501 C
   *************
   *************  ** Warning ** "TOTAL HOT WATER LOAD" - Target water temperature should be less than or equal to the hot water temperature error continues...
   *************  **   ~~~   **   This error occurred 163185 total times;
   *************  **   ~~~   **   during Warmup 0 times;
   *************  **   ~~~   **   during Sizing 0 times.
   *************  **   ~~~   **   Max=9.934324  Min=9.286037E-004
   *************
   *************  ** Warning ** SimHVAC: Exceeding Maximum iterations for all HVAC loops, during ANNUAL continues
   *************  **   ~~~   **   This error occurred 12 total times;
   *************  **   ~~~   **   during Warmup 0 times;
   *************  **   ~~~   **   during Sizing 0 times.
   *************
   *************
   ************* ===== Final Error Summary =====
   ************* The following error categories occurred.  Consider correcting or noting.
   ************* Loads Initialization did not Converge
   ************* ..1) very high thermal mass such as very thick concrete (solution: increase max number of warmup
   ************* ..   days in the BUILDING object);
   ************* ..2) moderate mass and inadequate space conditioning such that the building keeps getting warmer
   ************* ..   and warmer on successive days (solution: add HVAC, check building thermal properties,
   ************* ..   check if infiltration is included, make sure HVAC properly controlled);
   ************* ..3) a soil layer modeled below the concrete slab - (solution remove this layer and read about
   ************* ..   ground temperatures in the Auxiliary Programs document).
   ************* ..4) unreasonable (too small) limits in the BUILDING object for temperature (.4 default) or
   ************* ..   loads tolerances (.04 default)
   ************* Nominally Unused Constructions
   ************* ..The nominally unused constructions warning is provided to alert you to potential conditions that can cause
   ************* ..extra time during simulation. Each construction is calculated by the algorithm indicated in the HeatBalanceAlgorithm
   ************* ..object. You may remove the constructions indicated (when you use the DisplayExtraWarnings option).
   *************
   ************* EnergyPlus Warmup Error Summary. During Warmup: 1 Warning; 1 Severe Errors.
   ************* EnergyPlus Sizing Error Summary. During Sizing: 4 Warning; 0 Severe Errors.
   ************* EnergyPlus Completed Successfully-- 163231 Warning; 1 Severe Errors; Elapsed Time=00hr 06min 44.80sec
