Program Version,EnergyPlus, Version 22.2.0-c249759bad, YMD=2023.09.01 19:45,
   ************* Beginning Zone Sizing Calculations
   ** Warning ** ProcessScheduleInput: Schedule:Constant="ALWAYS ON DISCRETE", Schedule Type Limits Name="ONOFF" not found -- will not be validated
   ** Warning ** Foundation:Kiva="KIVA FOUNDATION", no Interior Horizontal Insulation Material Name defined
   **   ~~~   ** Interior Horizontal Insulation Depth will not be used.
   ** Warning ** CheckUsedConstructions: There are 15 nominally unused constructions in input.
   **   ~~~   ** Each Unused construction is shown.
   ************* Construction=INTERIOR FLOOR
   ************* Construction=INTERIOR WINDOW
   ************* Construction=EXTERIOR DOOR
   ************* Construction=INTERIOR DOOR
   ************* Construction=GABLE CONSTRUCTION
   ************* Construction=CRAWL_FLOOR
   ************* Construction=INSULATED PIPE
   ************* Construction=PLAIN PIPE
   ************* Construction=TDD PIPE
   ************* Construction=TDD DOME
   ************* Construction=TDD DIFFUSER
   ************* Construction=CRAWL WALL
   ************* Construction=CEILING-FLOOR-LAYER
   ************* Construction=SLAB CONSTRUCTION W FULL R10 INSULATION
   ************* Construction=SLAB CONSTRUCTION W FULL R5 INSULATION
   ** Warning ** GetDXCoils: Coil:Heating:DX:SingleSpeed="DX_HEATING_COIL" curve values
   **   ~~~   ** ... Defrost Energy Input Ratio Function of Temperature Curve Name = DEFROSTEIR output is not equal to 1.0 (+ or - 10%) at rated conditions.
   **   ~~~   ** ... Curve output at rated conditions = 0.152
   ************* Beginning System Sizing Calculations
   ************* Beginning Plant Sizing Calculations
   ** Warning ** Coil:WaterHeating:AirToWaterHeatPump:Wrapped "HEAT PUMP WATER HEATER EVAPORATOR": Rated air volume flow rate per watt of rated total water heating capacity is out of range
   **   ~~~   ** Min Rated Vol Flow Per Watt=[4.027E-005], Rated Vol Flow Per Watt=[1.510E-004], Max Rated Vol Flow Per Watt=[8.056E-005]. See Input-Output Reference Manual for valid range.
   ************* SizeFan: : Potential issue with equipment sizing for Fan:OnOff HEAT PUMP WATER HEATER FAN
   **   ~~~   ** User-Specified Maximum Flow Rate [m3/s] = 0.22653
   **   ~~~   ** differs from Design Size Maximum Flow Rate [m3/s] = 7.55250E-002
   **   ~~~   ** This may, or may not, indicate mismatched component sizes.
   **   ~~~   ** Verify that the value entered is intended and is consistent with other components.
   ** Warning ** Water heater = WATER HEATER TANK:  Recovery Efficiency and Energy Factor could not be calculated during the test for standard ratings
   **   ~~~   ** Setpoint was never recovered and/or heater never turned on
   ** Warning ** Check input. Pump nominal power or motor efficiency is set to 0, for pump=MAINS PRESSURE
   ** Warning ** Output:Meter: invalid Key Name="ELECTRIC_RANGE:INTERIOREQUIPMENT:ELECTRICITY" - not found.
   ** Warning ** Output:Meter: invalid Key Name="ELECTRIC_DRYER:INTERIOREQUIPMENT:ELECTRICITY" - not found.
   ** Warning ** Output:Meter: invalid Key Name="HEATRECOVERY:ELECTRICITY" - not found.
   ** Warning ** Output:Meter: invalid Key Name="HEATING:NATURALGAS" - not found.
   ** Warning ** Output:Meter: invalid Key Name="WATERSYSTEMS:NATURALGAS" - not found.
   ** Warning ** Output:Meter: invalid Key Name="PROPANE:FACILITY" - not found.
   ** Warning ** Output:Meter: invalid Key Name="HEATING:PROPANE" - not found.
   ************* Testing Individual Branch Integrity
   ************* All Branches passed integrity testing
   ************* Testing Individual Supply Air Path Integrity
   ************* All Supply Air Paths passed integrity testing
   ************* Testing Individual Return Air Path Integrity
   ************* All Return Air Paths passed integrity testing
   ************* No node connection errors were found.
   ************* Beginning Simulation
   ** Warning ** AirflowNetwork::Solver::validate_distribution: Heat pump water heater is simulated along with an AirflowNetwork but is not included in the AirflowNetwork.
   ** Warning ** CalcEquipmentFlowRates: "TOTAL HOT WATER LOAD" - Target water temperature is greater than the hot water temperature by (5.63 C)
   **   ~~~   **  Environment=EXTREME_WINTER, at Simulation time=12/22 06:00 - 06:15
   **   ~~~   ** ...target water temperature     = 53.33 C
   **   ~~~   ** ...hot water temperature        = 47.71 C
   **   ~~~   ** ...Target water temperature should be less than or equal to the hot water temperature. Verify temperature setpoints and schedules.
   ** Warning ** SimHVAC: Maximum iterations (20) exceeded for all HVAC loops, at ANNUAL, 02/01 18:45 - 18:52
   **   ~~~   ** The solution for one or more of the Air Loop HVAC systems did not appear to converge
   **   ~~~   ** Air System Named = CENTRAL SYSTEM did not converge for mass flow rate
   **   ~~~   ** Check values should be zero. Most Recent values listed first.
   **   ~~~   ** Demand-to-Supply interface mass flow rate check value iteration history trace: 7.647780E-002,7.647780E-002,7.647780E-002,7.647780E-002,7.647780E-002,7.647780E-002,7.647780E-002,7.647780E-002,7.647780E-002,7.647780E-002,
   **   ~~~   ** Supply-to-demand interface deck 1 mass flow rate check value iteration history trace: 7.647780E-002,7.647780E-002,7.647780E-002,7.647780E-002,7.647780E-002,7.647780E-002,7.647780E-002,7.647780E-002,7.647780E-002,7.647780E-002,
   **   ~~~   ** Air System Named = CENTRAL SYSTEM did not converge for energy
   **   ~~~   ** Check values should be zero. Most Recent values listed first.
   **   ~~~   ** Demand-to-Supply interface energy check value iteration history trace: 1509.921430,1509.921430,1509.921430,1509.921430,1509.921430,1509.921430,1509.921429,1509.921429,1509.921429,1509.921429,
   **   ~~~   ** Supply-to-demand interface deck 1 energy check value iteration history trace: 2455.764009,2455.764009,2455.764009,2455.764009,2455.764009,2455.764009,2455.764008,2455.764008,2455.764008,2455.764008,
   ** Warning ** SimHVAC: Maximum iterations (20) exceeded for all HVAC loops, at ANNUAL, 02/14 13:30 - 13:45
   **   ~~~   ** The solution for one or more of the Air Loop HVAC systems did not appear to converge
   **   ~~~   ** Air System Named = CENTRAL SYSTEM did not converge for mass flow rate
   **   ~~~   ** Check values should be zero. Most Recent values listed first.
   **   ~~~   ** Demand-to-Supply interface mass flow rate check value iteration history trace: 6.164193E-002,6.164193E-002,6.164193E-002,6.164193E-002,6.164193E-002,6.164193E-002,6.164193E-002,6.164193E-002,6.164193E-002,6.164193E-002,
   **   ~~~   ** Supply-to-demand interface deck 1 mass flow rate check value iteration history trace: 6.164193E-002,6.164193E-002,6.164193E-002,6.164193E-002,6.164193E-002,6.164193E-002,6.164193E-002,6.164193E-002,6.164193E-002,6.164193E-002,
   **   ~~~   ** Air System Named = CENTRAL SYSTEM did not converge for energy
   **   ~~~   ** Check values should be zero. Most Recent values listed first.
   **   ~~~   ** Demand-to-Supply interface energy check value iteration history trace: 1205.821081,1205.821081,1205.821081,1205.821081,1205.821081,1205.821081,1205.821081,1205.821081,1205.821081,1205.821081,
   **   ~~~   ** Supply-to-demand interface deck 1 energy check value iteration history trace: 2246.780795,2246.780795,2246.780795,2246.780795,2246.780795,2246.780795,2246.780795,2246.780795,2246.780795,2246.780795,
   ** Warning ** SimHVAC: Maximum iterations (20) exceeded for all HVAC loops, at ANNUAL, 02/21 18:30 - 18:45
   **   ~~~   ** The solution for one or more of the Air Loop HVAC systems did not appear to converge
   **   ~~~   ** Air System Named = CENTRAL SYSTEM did not converge for mass flow rate
   **   ~~~   ** Check values should be zero. Most Recent values listed first.
   **   ~~~   ** Demand-to-Supply interface mass flow rate check value iteration history trace: 8.714869E-002,8.714869E-002,8.714869E-002,8.714869E-002,8.714869E-002,8.714869E-002,8.714869E-002,8.714869E-002,8.714869E-002,8.714869E-002,
   **   ~~~   ** Supply-to-demand interface deck 1 mass flow rate check value iteration history trace: 8.714869E-002,8.714869E-002,8.714869E-002,8.714869E-002,8.714869E-002,8.714869E-002,8.714869E-002,8.714869E-002,8.714869E-002,8.714869E-002,
   **   ~~~   ** Air System Named = CENTRAL SYSTEM did not converge for energy
   **   ~~~   ** Check values should be zero. Most Recent values listed first.
   **   ~~~   ** Demand-to-Supply interface energy check value iteration history trace: 1711.770543,1711.770543,1711.770543,1711.770542,1711.770542,1711.770542,1711.770542,1711.770542,1711.770542,1711.770542,
   **   ~~~   ** Supply-to-demand interface deck 1 energy check value iteration history trace: 2795.890387,2795.890387,2795.890387,2795.890387,2795.890386,2795.890386,2795.890386,2795.890386,2795.890386,2795.890386,
   ** Warning ** SimHVAC: Maximum iterations (20) exceeded for all HVAC loops, at ANNUAL, 02/28 19:55 - 20:00
   **   ~~~   ** The solution for one or more of the Air Loop HVAC systems did not appear to converge
   **   ~~~   ** Air System Named = CENTRAL SYSTEM did not converge for mass flow rate
   **   ~~~   ** Check values should be zero. Most Recent values listed first.
   **   ~~~   ** Demand-to-Supply interface mass flow rate check value iteration history trace: 6.179407E-002,6.179407E-002,6.179407E-002,6.179407E-002,6.179407E-002,6.179407E-002,6.179407E-002,6.179407E-002,6.179407E-002,6.179407E-002,
   **   ~~~   ** Supply-to-demand interface deck 1 mass flow rate check value iteration history trace: 6.179407E-002,6.179407E-002,6.179407E-002,6.179407E-002,6.179407E-002,6.179407E-002,6.179407E-002,6.179407E-002,6.179407E-002,6.179407E-002,
   **   ~~~   ** Air System Named = CENTRAL SYSTEM did not converge for energy
   **   ~~~   ** Check values should be zero. Most Recent values listed first.
   **   ~~~   ** Demand-to-Supply interface energy check value iteration history trace: 1212.831485,1212.831485,1212.831485,1212.831485,1212.831484,1212.831484,1212.831484,1212.831484,1212.831484,1212.831484,
   **   ~~~   ** Supply-to-demand interface deck 1 energy check value iteration history trace: 2146.054933,2146.054933,2146.054933,2146.054933,2146.054932,2146.054932,2146.054932,2146.054932,2146.054932,2146.054932,
   ** Warning ** SimHVAC: Maximum iterations (20) exceeded for all HVAC loops, at ANNUAL, 03/04 12:30 - 12:45
   **   ~~~   ** The solution for one or more of the Air Loop HVAC systems did not appear to converge
   **   ~~~   ** Air System Named = CENTRAL SYSTEM did not converge for mass flow rate
   **   ~~~   ** Check values should be zero. Most Recent values listed first.
   **   ~~~   ** Demand-to-Supply interface mass flow rate check value iteration history trace: 4.240255E-002,4.240255E-002,4.240255E-002,4.240255E-002,4.240255E-002,4.240255E-002,4.240255E-002,4.240255E-002,4.240255E-002,4.240255E-002,
   **   ~~~   ** Supply-to-demand interface deck 1 mass flow rate check value iteration history trace: 4.240255E-002,4.240255E-002,4.240255E-002,4.240255E-002,4.240255E-002,4.240255E-002,4.240255E-002,4.240255E-002,4.240255E-002,4.240255E-002,
   **   ~~~   ** Air System Named = CENTRAL SYSTEM did not converge for energy
   **   ~~~   ** Check values should be zero. Most Recent values listed first.
   **   ~~~   ** Demand-to-Supply interface energy check value iteration history trace: 839.021354,839.021354,839.021354,839.021354,839.021354,839.021353,839.021353,839.021353,839.021353,839.021353,
   **   ~~~   ** Supply-to-demand interface deck 1 energy check value iteration history trace: 1364.557024,1364.557024,1364.557024,1364.557024,1364.557024,1364.557023,1364.557023,1364.557023,1364.557023,1364.557023,
   ** Warning ** SimHVAC: Maximum iterations (20) exceeded for all HVAC loops, at ANNUAL, 04/24 08:45 - 09:00
   **   ~~~   ** The solution for one or more of the Air Loop HVAC systems did not appear to converge
   **   ~~~   ** Air System Named = CENTRAL SYSTEM did not converge for mass flow rate
   **   ~~~   ** Check values should be zero. Most Recent values listed first.
   **   ~~~   ** Demand-to-Supply interface mass flow rate check value iteration history trace: 5.713742E-002,5.713742E-002,5.713742E-002,5.713742E-002,5.713742E-002,5.713742E-002,5.713742E-002,5.713742E-002,5.713742E-002,5.713742E-002,
   **   ~~~   ** Supply-to-demand interface deck 1 mass flow rate check value iteration history trace: 5.713742E-002,5.713742E-002,5.713742E-002,5.713742E-002,5.713742E-002,5.713742E-002,5.713742E-002,5.713742E-002,5.713742E-002,5.713742E-002,
   **   ~~~   ** Air System Named = CENTRAL SYSTEM did not converge for energy
   **   ~~~   ** Check values should be zero. Most Recent values listed first.
   **   ~~~   ** Demand-to-Supply interface energy check value iteration history trace: 1132.232148,1132.232148,1132.232148,1132.232148,1132.232148,1132.232148,1132.232148,1132.232148,1132.232148,1132.232148,
   **   ~~~   ** Supply-to-demand interface deck 1 energy check value iteration history trace: 2078.931222,2078.931222,2078.931222,2078.931222,2078.931222,2078.931222,2078.931222,2078.931222,2078.931222,2078.931222,
   ** Warning ** SimHVAC: Maximum iterations (20) exceeded for all HVAC loops, at ANNUAL, 05/17 07:08 - 07:15
   **   ~~~   ** The solution for one or more of the Air Loop HVAC systems did not appear to converge
   **   ~~~   ** Air System Named = CENTRAL SYSTEM did not converge for mass flow rate
   **   ~~~   ** Check values should be zero. Most Recent values listed first.
   **   ~~~   ** Demand-to-Supply interface mass flow rate check value iteration history trace: 6.467287E-002,6.467287E-002,6.467287E-002,6.467287E-002,6.467287E-002,6.467287E-002,6.467287E-002,6.467287E-002,6.467287E-002,6.467287E-002,
   **   ~~~   ** Supply-to-demand interface deck 1 mass flow rate check value iteration history trace: 6.467287E-002,6.467287E-002,6.467287E-002,6.467287E-002,6.467287E-002,6.467287E-002,6.467287E-002,6.467287E-002,6.467287E-002,6.467287E-002,
   **   ~~~   ** Air System Named = CENTRAL SYSTEM did not converge for energy
   **   ~~~   ** Check values should be zero. Most Recent values listed first.
   **   ~~~   ** Demand-to-Supply interface energy check value iteration history trace: 1281.454803,1281.454803,1281.454803,1281.454803,1281.454802,1281.454802,1281.454802,1281.454802,1281.454802,1281.454802,
   **   ~~~   ** Supply-to-demand interface deck 1 energy check value iteration history trace: 2354.477174,2354.477174,2354.477174,2354.477174,2354.477174,2354.477173,2354.477173,2354.477173,2354.477173,2354.477173,
   ** Warning ** SimHVAC: Maximum iterations (20) exceeded for all HVAC loops, at ANNUAL, 06/06 23:45 - 24:00
   **   ~~~   ** The solution for one or more of the Air Loop HVAC systems did not appear to converge
   **   ~~~   ** Air System Named = CENTRAL SYSTEM did not converge for mass flow rate
   **   ~~~   ** Check values should be zero. Most Recent values listed first.
   **   ~~~   ** Demand-to-Supply interface mass flow rate check value iteration history trace: 9.561171E-002,9.561171E-002,9.561171E-002,9.561171E-002,9.561171E-002,9.561171E-002,9.561171E-002,9.561171E-002,9.561171E-002,9.561171E-002,
   **   ~~~   ** Supply-to-demand interface deck 1 mass flow rate check value iteration history trace: 9.561171E-002,9.561171E-002,9.561171E-002,9.561171E-002,9.561171E-002,9.561171E-002,9.561171E-002,9.561171E-002,9.561171E-002,9.561171E-002,
   **   ~~~   ** Air System Named = CENTRAL SYSTEM did not converge for energy
   **   ~~~   ** Check values should be zero. Most Recent values listed first.
   **   ~~~   ** Demand-to-Supply interface energy check value iteration history trace: 2406.384167,2406.384168,2406.384169,2406.384169,2406.384170,2406.384170,2406.384171,2406.384171,2406.384172,2406.384172,
   **   ~~~   ** Supply-to-demand interface deck 1 energy check value iteration history trace: 995.360376,995.360376,995.360377,995.360377,995.360377,995.360377,995.360378,995.360378,995.360378,995.360378,
   ** Warning ** SimHVAC: Maximum iterations (20) exceeded for all HVAC loops, at ANNUAL, 06/08 07:24 - 07:27
   **   ~~~   ** The solution for one or more of the Air Loop HVAC systems did not appear to converge
   **   ~~~   ** Air System Named = CENTRAL SYSTEM did not converge for mass flow rate
   **   ~~~   ** Check values should be zero. Most Recent values listed first.
   **   ~~~   ** Demand-to-Supply interface mass flow rate check value iteration history trace: 0.290371,0.290371,0.290371,0.290371,0.290371,0.290371,0.290371,0.290371,0.290371,0.290371,
   **   ~~~   ** Supply-to-demand interface deck 1 mass flow rate check value iteration history trace: 0.290371,0.290371,0.290371,0.290371,0.290371,0.290371,0.290371,0.290371,0.290371,0.290371,
   **   ~~~   ** Air System Named = CENTRAL SYSTEM did not converge for energy
   **   ~~~   ** Check values should be zero. Most Recent values listed first.
   **   ~~~   ** Demand-to-Supply interface energy check value iteration history trace: 6941.669904,6941.669907,6941.669909,6941.669911,6941.669913,6941.669916,6941.669918,6941.669920,6941.669922,6941.669924,
   **   ~~~   ** Supply-to-demand interface deck 1 energy check value iteration history trace: 3709.146119,3709.146121,3709.146122,3709.146123,3709.146124,3709.146125,3709.146127,3709.146128,3709.146129,3709.146130,
   ** Warning ** SimHVAC: Maximum iterations (20) exceeded for all HVAC loops, at ANNUAL, 06/11 00:15 - 00:30
   **   ~~~   ** The solution for one or more of the Air Loop HVAC systems did not appear to converge
   **   ~~~   ** Air System Named = CENTRAL SYSTEM did not converge for mass flow rate
   **   ~~~   ** Check values should be zero. Most Recent values listed first.
   **   ~~~   ** Demand-to-Supply interface mass flow rate check value iteration history trace: 8.622282E-002,8.622282E-002,8.622282E-002,8.622282E-002,8.622282E-002,8.622282E-002,8.622282E-002,8.622282E-002,8.622282E-002,8.622282E-002,
   **   ~~~   ** Supply-to-demand interface deck 1 mass flow rate check value iteration history trace: 8.622282E-002,8.622282E-002,8.622282E-002,8.622282E-002,8.622282E-002,8.622282E-002,8.622282E-002,8.622282E-002,8.622282E-002,8.622282E-002,
   **   ~~~   ** Air System Named = CENTRAL SYSTEM did not converge for energy
   **   ~~~   ** Check values should be zero. Most Recent values listed first.
   **   ~~~   ** Demand-to-Supply interface energy check value iteration history trace: 2130.022799,2130.022799,2130.022800,2130.022800,2130.022800,2130.022801,2130.022801,2130.022801,2130.022802,2130.022802,
   **   ~~~   ** Supply-to-demand interface deck 1 energy check value iteration history trace: 1153.084870,1153.084870,1153.084870,1153.084870,1153.084870,1153.084871,1153.084871,1153.084871,1153.084871,1153.084871,
   ** Warning ** SimHVAC: Maximum iterations (20) exceeded for all HVAC loops, at ANNUAL, 10/06 23:15 - 23:30
   **   ~~~   ** The solution for one or more of the Air Loop HVAC systems did not appear to converge
   **   ~~~   ** Air System Named = CENTRAL SYSTEM did not converge for mass flow rate
   **   ~~~   ** Check values should be zero. Most Recent values listed first.
   **   ~~~   ** Demand-to-Supply interface mass flow rate check value iteration history trace: 8.117168E-002,8.117168E-002,8.117168E-002,8.117168E-002,8.117168E-002,8.117168E-002,8.117168E-002,8.117168E-002,8.117168E-002,8.117168E-002,
   **   ~~~   ** Supply-to-demand interface deck 1 mass flow rate check value iteration history trace: 8.117168E-002,8.117168E-002,8.117168E-002,8.117168E-002,8.117168E-002,8.117168E-002,8.117168E-002,8.117168E-002,8.117168E-002,8.117168E-002,
   **   ~~~   ** Air System Named = CENTRAL SYSTEM did not converge for energy
   **   ~~~   ** Check values should be zero. Most Recent values listed first.
   **   ~~~   ** Demand-to-Supply interface energy check value iteration history trace: 2038.455871,2038.455871,2038.455871,2038.455872,2038.455872,2038.455872,2038.455872,2038.455872,2038.455872,2038.455872,
   **   ~~~   ** Supply-to-demand interface deck 1 energy check value iteration history trace: 946.623712,946.623712,946.623712,946.623712,946.623712,946.623712,946.623712,946.623712,946.623712,946.623712,
   ** Warning ** SimHVAC: Maximum iterations (20) exceeded for all HVAC loops, at ANNUAL, 11/10 17:45 - 17:52
   **   ~~~   ** The solution for one or more of the Air Loop HVAC systems did not appear to converge
   **   ~~~   ** Air System Named = CENTRAL SYSTEM did not converge for mass flow rate
   **   ~~~   ** Check values should be zero. Most Recent values listed first.
   **   ~~~   ** Demand-to-Supply interface mass flow rate check value iteration history trace: 5.829078E-002,5.829078E-002,5.829078E-002,5.829078E-002,5.829078E-002,5.829078E-002,5.829078E-002,5.829078E-002,5.829078E-002,5.829078E-002,
   **   ~~~   ** Supply-to-demand interface deck 1 mass flow rate check value iteration history trace: 5.829078E-002,5.829078E-002,5.829078E-002,5.829078E-002,5.829078E-002,5.829078E-002,5.829078E-002,5.829078E-002,5.829078E-002,5.829078E-002,
   **   ~~~   ** Air System Named = CENTRAL SYSTEM did not converge for energy
   **   ~~~   ** Check values should be zero. Most Recent values listed first.
   **   ~~~   ** Demand-to-Supply interface energy check value iteration history trace: 1153.247389,1153.247389,1153.247389,1153.247389,1153.247389,1153.247388,1153.247388,1153.247388,1153.247388,1153.247388,
   **   ~~~   ** Supply-to-demand interface deck 1 energy check value iteration history trace: 2065.388956,2065.388956,2065.388956,2065.388956,2065.388956,2065.388956,2065.388955,2065.388955,2065.388955,2065.388955,
   ** Warning ** SimHVAC: Maximum iterations (20) exceeded for all HVAC loops, at ANNUAL, 12/12 14:30 - 14:45
   **   ~~~   ** The solution for one or more of the Air Loop HVAC systems did not appear to converge
   **   ~~~   ** Air System Named = CENTRAL SYSTEM did not converge for mass flow rate
   **   ~~~   ** Check values should be zero. Most Recent values listed first.
   **   ~~~   ** Demand-to-Supply interface mass flow rate check value iteration history trace: 5.908989E-002,5.908989E-002,5.908989E-002,5.908989E-002,5.908989E-002,5.908989E-002,5.908989E-002,5.908989E-002,5.908989E-002,5.908989E-002,
   **   ~~~   ** Supply-to-demand interface deck 1 mass flow rate check value iteration history trace: 5.908989E-002,5.908989E-002,5.908989E-002,5.908989E-002,5.908989E-002,5.908989E-002,5.908989E-002,5.908989E-002,5.908989E-002,5.908989E-002,
   **   ~~~   ** Air System Named = CENTRAL SYSTEM did not converge for energy
   **   ~~~   ** Check values should be zero. Most Recent values listed first.
   **   ~~~   ** Demand-to-Supply interface energy check value iteration history trace: 1171.733568,1171.733568,1171.733567,1171.733567,1171.733567,1171.733567,1171.733567,1171.733567,1171.733567,1171.733567,
   **   ~~~   ** Supply-to-demand interface deck 1 energy check value iteration history trace: 2072.054017,2072.054017,2072.054016,2072.054016,2072.054016,2072.054016,2072.054016,2072.054016,2072.054016,2072.054016,
   ** Warning ** SimHVAC: Maximum iterations (20) exceeded for all HVAC loops, at ANNUAL, 12/19 18:00 - 18:15
   **   ~~~   ** The solution for one or more of the Air Loop HVAC systems did not appear to converge
   **   ~~~   ** Air System Named = CENTRAL SYSTEM did not converge for mass flow rate
   **   ~~~   ** Check values should be zero. Most Recent values listed first.
   **   ~~~   ** Demand-to-Supply interface mass flow rate check value iteration history trace: 8.214023E-002,8.214023E-002,8.214023E-002,8.214023E-002,8.214023E-002,8.214023E-002,8.214023E-002,8.214023E-002,8.214023E-002,8.214023E-002,
   **   ~~~   ** Supply-to-demand interface deck 1 mass flow rate check value iteration history trace: 8.214023E-002,8.214023E-002,8.214023E-002,8.214023E-002,8.214023E-002,8.214023E-002,8.214023E-002,8.214023E-002,8.214023E-002,8.214023E-002,
   **   ~~~   ** Air System Named = CENTRAL SYSTEM did not converge for energy
   **   ~~~   ** Check values should be zero. Most Recent values listed first.
   **   ~~~   ** Demand-to-Supply interface energy check value iteration history trace: 1621.023611,1621.023611,1621.023611,1621.023611,1621.023610,1621.023610,1621.023610,1621.023610,1621.023610,1621.023610,
   **   ~~~   ** Supply-to-demand interface deck 1 energy check value iteration history trace: 2627.285722,2627.285722,2627.285722,2627.285722,2627.285722,2627.285721,2627.285721,2627.285721,2627.285721,2627.285721,
   ************* Simulation Error Summary *************
   ** Warning ** The following Report Variables were requested but not generated -- check.rdd file
   **   ~~~   ** Either the IDF did not contain these elements, the variable name is misspelled,
   **   ~~~   ** or the requested variable is an advanced output which requires Output : Diagnostics, DisplayAdvancedReportVariables;
   ************* Key=*, VarName=BASEBOARD TOTAL HEATING ENERGY, Frequency=
   ************* Key=*, VarName=WATER HEATER NATURALGAS ENERGY, Frequency=
   ************* Key=*, VarName=COOLING COIL TOTAL HEATING ENERGY, Frequency=
   ************* There are 34 unused schedules in input.
   ************* There are 388 unused week schedules in input.
   ************* There are 396 unused day schedules in input.
   ************* Use Output:Diagnostics,DisplayUnusedSchedules; to see them.
   *************
   ************* ===== Recurring Error Summary =====
   ************* The following recurring error messages occurred.
   *************
   *************  ** Warning ** "TOTAL HOT WATER LOAD" - Target water temperature should be less than or equal to the hot water temperature error continues...
   *************  **   ~~~   **   This error occurred 109511 total times;
   *************  **   ~~~   **   during Warmup 0 times;
   *************  **   ~~~   **   during Sizing 0 times.
   *************  **   ~~~   **   Max=14.328011  Min=1.510920E-003
   *************
   *************  ** Warning ** SimHVAC: Exceeding Maximum iterations for all HVAC loops, during ANNUAL continues
   *************  **   ~~~   **   This error occurred 2 total times;
   *************  **   ~~~   **   during Warmup 0 times;
   *************  **   ~~~   **   during Sizing 0 times.
   *************
   *************
   ************* ===== Final Error Summary =====
   ************* The following error categories occurred.  Consider correcting or noting.
   ************* Nominally Unused Constructions
   ************* ..The nominally unused constructions warning is provided to alert you to potential conditions that can cause
   ************* ..extra time during simulation. Each construction is calculated by the algorithm indicated in the HeatBalanceAlgorithm
   ************* ..object. You may remove the constructions indicated (when you use the DisplayExtraWarnings option).
   *************
   ************* EnergyPlus Warmup Error Summary. During Warmup: 1 Warning; 0 Severe Errors.
   ************* EnergyPlus Sizing Error Summary. During Sizing: 4 Warning; 0 Severe Errors.
   ************* EnergyPlus Completed Successfully-- 109544 Warning; 0 Severe Errors; Elapsed Time=00hr 01min 35.75sec
