Program Version,EnergyPlus, Version 22.2.0-c249759bad, YMD=2023.09.01 14:50,
   ************* Beginning Zone Sizing Calculations
   ** Warning ** ProcessScheduleInput: Schedule:Constant="ALWAYS ON DISCRETE", Schedule Type Limits Name="ONOFF" not found -- will not be validated
   ** Warning ** Foundation:Kiva="KIVA FOUNDATION", no Interior Horizontal Insulation Material Name defined
   **   ~~~   ** Interior Horizontal Insulation Depth will not be used.
   ** Warning ** CheckUsedConstructions: There are 15 nominally unused constructions in input.
   **   ~~~   ** Each Unused construction is shown.
   ************* Construction=INTERIOR FLOOR
   ************* Construction=INTERIOR WINDOW
   ************* Construction=EXTERIOR DOOR
   ************* Construction=INTERIOR DOOR
   ************* Construction=GABLE CONSTRUCTION
   ************* Construction=CRAWL_FLOOR
   ************* Construction=INSULATED PIPE
   ************* Construction=PLAIN PIPE
   ************* Construction=TDD PIPE
   ************* Construction=TDD DOME
   ************* Construction=TDD DIFFUSER
   ************* Construction=CRAWL WALL
   ************* Construction=CEILING-FLOOR-LAYER
   ************* Construction=SLAB CONSTRUCTION W FULL R10 INSULATION
   ************* Construction=SLAB CONSTRUCTION W FULL R5 INSULATION
   ** Warning ** GetDXCoils: Coil:Heating:DX:SingleSpeed="DX_HEATING_COIL" curve values
   **   ~~~   ** ... Defrost Energy Input Ratio Function of Temperature Curve Name = DEFROSTEIR output is not equal to 1.0 (+ or - 10%) at rated conditions.
   **   ~~~   ** ... Curve output at rated conditions = 0.152
   ************* Beginning System Sizing Calculations
   ************* Beginning Plant Sizing Calculations
   ** Warning ** SizeDXCoil Coil:Cooling:DX:SingleSpeed DX_COOLING_COIL
   **   ~~~   ** ...Gross Rated Total Cooling Capacity [W] will be limited by the maximum rated volume flow per rated total capacity ratio.
   **   ~~~   ** ...DX coil volume flow rate ( m3/s ) = 0.430660
   **   ~~~   ** ...Requested capacity ( W ) = 6798.221
   **   ~~~   ** ...Requested flow/capacity ratio ( m3/s/W ) = 6.334E-005
   **   ~~~   ** ...Maximum flow/capacity ratio ( m3/s/W ) = 6.041E-005
   **   ~~~   ** ...Adjusted capacity ( W ) = 7128.964
   ** Warning ** Coil:WaterHeating:AirToWaterHeatPump:Wrapped "HEAT PUMP WATER HEATER EVAPORATOR": Rated air volume flow rate per watt of rated total water heating capacity is out of range
   **   ~~~   ** Min Rated Vol Flow Per Watt=[4.027E-005], Rated Vol Flow Per Watt=[1.386E-004], Max Rated Vol Flow Per Watt=[8.056E-005]. See Input-Output Reference Manual for valid range.
   ** Warning ** Water heater = WATER HEATER TANK:  Recovery Efficiency and Energy Factor could not be calculated during the test for standard ratings
   **   ~~~   ** Setpoint was never recovered and/or heater never turned on
   ** Warning ** Check input. Pump nominal power or motor efficiency is set to 0, for pump=MAINS PRESSURE
   ** Warning ** Output:Meter: invalid Key Name="ELECTRIC_RANGE:INTERIOREQUIPMENT:ELECTRICITY" - not found.
   ** Warning ** Output:Meter: invalid Key Name="ELECTRIC_DRYER:INTERIOREQUIPMENT:ELECTRICITY" - not found.
   ** Warning ** Output:Meter: invalid Key Name="HEATRECOVERY:ELECTRICITY" - not found.
   ** Warning ** Output:Meter: invalid Key Name="HEATING:NATURALGAS" - not found.
   ** Warning ** Output:Meter: invalid Key Name="WATERSYSTEMS:NATURALGAS" - not found.
   ** Warning ** Output:Meter: invalid Key Name="PROPANE:FACILITY" - not found.
   ** Warning ** Output:Meter: invalid Key Name="HEATING:PROPANE" - not found.
   ************* Testing Individual Branch Integrity
   ************* All Branches passed integrity testing
   ************* Testing Individual Supply Air Path Integrity
   ************* All Supply Air Paths passed integrity testing
   ************* Testing Individual Return Air Path Integrity
   ************* All Return Air Paths passed integrity testing
   ************* No node connection errors were found.
   ************* Beginning Simulation
   ** Warning ** AirflowNetwork::Solver::validate_distribution: Heat pump water heater is simulated along with an AirflowNetwork but is not included in the AirflowNetwork.
   ** Warning ** CalcEquipmentFlowRates: "TOTAL HOT WATER LOAD" - Target water temperature is greater than the hot water temperature by (1.64 C)
   **   ~~~   **  Environment=EXTREME_WINTER, at Simulation time=01/06 06:00 - 06:15
   **   ~~~   ** ...target water temperature     = 53.33 C
   **   ~~~   ** ...hot water temperature        = 51.69 C
   **   ~~~   ** ...Target water temperature should be less than or equal to the hot water temperature. Verify temperature setpoints and schedules.
   ** Warning ** SimHVAC: Maximum iterations (20) exceeded for all HVAC loops, at ANNUAL, 01/18 20:10 - 20:15
   **   ~~~   ** The solution for one or more of the Air Loop HVAC systems did not appear to converge
   **   ~~~   ** Air System Named = CENTRAL SYSTEM did not converge for mass flow rate
   **   ~~~   ** Check values should be zero. Most Recent values listed first.
   **   ~~~   ** Demand-to-Supply interface mass flow rate check value iteration history trace: 0.135147,0.135147,0.135147,0.135147,0.135147,0.135147,0.135147,0.135147,0.135147,0.135147,
   **   ~~~   ** Supply-to-demand interface deck 1 mass flow rate check value iteration history trace: 0.135147,0.135147,0.135147,0.135147,0.135147,0.135147,0.135147,0.135147,0.135147,0.135147,
   **   ~~~   ** Air System Named = CENTRAL SYSTEM did not converge for energy
   **   ~~~   ** Check values should be zero. Most Recent values listed first.
   **   ~~~   ** Demand-to-Supply interface energy check value iteration history trace: 2655.704459,2655.704459,2655.704458,2655.704458,2655.704458,2655.704458,2655.704458,2655.704457,2655.704457,2655.704457,
   **   ~~~   ** Supply-to-demand interface deck 1 energy check value iteration history trace: 3946.224589,3946.224589,3946.224589,3946.224589,3946.224588,3946.224588,3946.224588,3946.224587,3946.224587,3946.224587,
   ** Warning ** Temperature out of range [-100. to 200.] (PsyPsatFnTemp)
   **   ~~~   **  Routine=PsyTwbFnTdbWPb, Environment=ANNUAL, at Simulation time=02/17 12:00 - 12:04
   **   ~~~   **  Input Temperature=-297.93
   ** Warning ** SimHVAC: Maximum iterations (20) exceeded for all HVAC loops, at ANNUAL, 02/26 17:45 - 18:00
   **   ~~~   ** The solution for one or more of the Air Loop HVAC systems did not appear to converge
   **   ~~~   ** Air System Named = CENTRAL SYSTEM did not converge for mass flow rate
   **   ~~~   ** Check values should be zero. Most Recent values listed first.
   **   ~~~   ** Demand-to-Supply interface mass flow rate check value iteration history trace: 0.120896,0.120896,0.120896,0.120896,0.120896,0.120896,0.120896,0.120896,0.120896,0.120896,
   **   ~~~   ** Supply-to-demand interface deck 1 mass flow rate check value iteration history trace: 0.120896,0.120896,0.120896,0.120896,0.120896,0.120896,0.120896,0.120896,0.120896,0.120896,
   **   ~~~   ** Air System Named = CENTRAL SYSTEM did not converge for energy
   **   ~~~   ** Check values should be zero. Most Recent values listed first.
   **   ~~~   ** Demand-to-Supply interface energy check value iteration history trace: 2418.931701,2418.931701,2418.931700,2418.931700,2418.931700,2418.931700,2418.931700,2418.931699,2418.931699,2418.931699,
   **   ~~~   ** Supply-to-demand interface deck 1 energy check value iteration history trace: 3579.280168,3579.280168,3579.280168,3579.280167,3579.280167,3579.280167,3579.280166,3579.280166,3579.280166,3579.280166,
   ** Warning ** SimHVAC: Maximum iterations (20) exceeded for all HVAC loops, at ANNUAL, 02/26 18:00 - 18:08
   **   ~~~   ** The solution for one or more of the Air Loop HVAC systems did not appear to converge
   **   ~~~   ** Air System Named = CENTRAL SYSTEM did not converge for mass flow rate
   **   ~~~   ** Check values should be zero. Most Recent values listed first.
   **   ~~~   ** Demand-to-Supply interface mass flow rate check value iteration history trace: 0.120452,0.120452,0.120452,0.120452,0.120452,0.120452,0.120452,0.120452,0.120452,0.120452,
   **   ~~~   ** Supply-to-demand interface deck 1 mass flow rate check value iteration history trace: 0.120452,0.120452,0.120452,0.120452,0.120452,0.120452,0.120452,0.120452,0.120452,0.120452,
   **   ~~~   ** Air System Named = CENTRAL SYSTEM did not converge for energy
   **   ~~~   ** Check values should be zero. Most Recent values listed first.
   **   ~~~   ** Demand-to-Supply interface energy check value iteration history trace: 2387.734323,2387.734323,2387.734322,2387.734322,2387.734322,2387.734322,2387.734322,2387.734321,2387.734321,2387.734321,
   **   ~~~   ** Supply-to-demand interface deck 1 energy check value iteration history trace: 3537.131021,3537.131021,3537.131021,3537.131021,3537.131020,3537.131020,3537.131020,3537.131019,3537.131019,3537.131019,
   ** Warning ** SimHVAC: Maximum iterations (20) exceeded for all HVAC loops, at ANNUAL, 03/09 17:00 - 17:15
   **   ~~~   ** The solution for one or more of the Air Loop HVAC systems did not appear to converge
   **   ~~~   ** Air System Named = CENTRAL SYSTEM did not converge for mass flow rate
   **   ~~~   ** Check values should be zero. Most Recent values listed first.
   **   ~~~   ** Demand-to-Supply interface mass flow rate check value iteration history trace: 5.946762E-002,5.946762E-002,5.946762E-002,5.946762E-002,5.946762E-002,5.946762E-002,5.946762E-002,5.946762E-002,5.946762E-002,5.946762E-002,
   **   ~~~   ** Supply-to-demand interface deck 1 mass flow rate check value iteration history trace: 5.946762E-002,5.946762E-002,5.946762E-002,5.946762E-002,5.946762E-002,5.946762E-002,5.946762E-002,5.946762E-002,5.946762E-002,5.946762E-002,
   **   ~~~   ** Air System Named = CENTRAL SYSTEM did not converge for energy
   **   ~~~   ** Check values should be zero. Most Recent values listed first.
   **   ~~~   ** Demand-to-Supply interface energy check value iteration history trace: 1179.056127,1179.056127,1179.056127,1179.056127,1179.056126,1179.056126,1179.056126,1179.056126,1179.056126,1179.056126,
   **   ~~~   ** Supply-to-demand interface deck 1 energy check value iteration history trace: 2094.914243,2094.914243,2094.914243,2094.914243,2094.914242,2094.914242,2094.914242,2094.914242,2094.914242,2094.914242,
   ** Warning ** SimHVAC: Maximum iterations (20) exceeded for all HVAC loops, at ANNUAL, 03/25 08:30 - 08:45
   **   ~~~   ** The solution for one or more of the Air Loop HVAC systems did not appear to converge
   **   ~~~   ** Air System Named = CENTRAL SYSTEM did not converge for mass flow rate
   **   ~~~   ** Check values should be zero. Most Recent values listed first.
   **   ~~~   ** Demand-to-Supply interface mass flow rate check value iteration history trace: 6.486232E-002,6.486232E-002,6.486232E-002,6.486232E-002,6.486232E-002,6.486232E-002,6.486232E-002,6.486232E-002,6.486232E-002,6.486232E-002,
   **   ~~~   ** Supply-to-demand interface deck 1 mass flow rate check value iteration history trace: 6.486232E-002,6.486232E-002,6.486232E-002,6.486232E-002,6.486232E-002,6.486232E-002,6.486232E-002,6.486232E-002,6.486232E-002,6.486232E-002,
   **   ~~~   ** Air System Named = CENTRAL SYSTEM did not converge for energy
   **   ~~~   ** Check values should be zero. Most Recent values listed first.
   **   ~~~   ** Demand-to-Supply interface energy check value iteration history trace: 1285.298303,1285.298303,1285.298303,1285.298303,1285.298303,1285.298303,1285.298303,1285.298302,1285.298302,1285.298302,
   **   ~~~   ** Supply-to-demand interface deck 1 energy check value iteration history trace: 2283.426881,2283.426881,2283.426881,2283.426880,2283.426880,2283.426880,2283.426880,2283.426880,2283.426880,2283.426880,
   ** Warning ** SimHVAC: Maximum iterations (20) exceeded for all HVAC loops, at ANNUAL, 03/26 09:32 - 09:34
   **   ~~~   ** The solution for one or more of the Air Loop HVAC systems did not appear to converge
   **   ~~~   ** Air System Named = CENTRAL SYSTEM did not converge for mass flow rate
   **   ~~~   ** Check values should be zero. Most Recent values listed first.
   **   ~~~   ** Demand-to-Supply interface mass flow rate check value iteration history trace: 0.119719,0.119719,0.119719,0.119719,0.119719,0.119719,0.119719,0.119719,0.119719,0.119719,
   **   ~~~   ** Supply-to-demand interface deck 1 mass flow rate check value iteration history trace: 0.119719,0.119719,0.119719,0.119719,0.119719,0.119719,0.119719,0.119719,0.119719,0.119719,
   **   ~~~   ** Air System Named = CENTRAL SYSTEM did not converge for energy
   **   ~~~   ** Check values should be zero. Most Recent values listed first.
   **   ~~~   ** Demand-to-Supply interface energy check value iteration history trace: 2372.608133,2372.608133,2372.608133,2372.608133,2372.608133,2372.608132,2372.608132,2372.608132,2372.608132,2372.608132,
   **   ~~~   ** Supply-to-demand interface deck 1 energy check value iteration history trace: 3617.977451,3617.977450,3617.977450,3617.977450,3617.977450,3617.977449,3617.977449,3617.977449,3617.977449,3617.977448,
   ** Warning ** SimHVAC: Maximum iterations (20) exceeded for all HVAC loops, at ANNUAL, 04/04 20:00 - 20:15
   **   ~~~   ** The solution for one or more of the Air Loop HVAC systems did not appear to converge
   **   ~~~   ** Air System Named = CENTRAL SYSTEM did not converge for mass flow rate
   **   ~~~   ** Check values should be zero. Most Recent values listed first.
   **   ~~~   ** Demand-to-Supply interface mass flow rate check value iteration history trace: 8.736408E-002,8.736408E-002,8.736408E-002,8.736408E-002,8.736408E-002,8.736408E-002,8.736408E-002,8.736408E-002,8.736408E-002,8.736408E-002,
   **   ~~~   ** Supply-to-demand interface deck 1 mass flow rate check value iteration history trace: 8.736408E-002,8.736408E-002,8.736408E-002,8.736408E-002,8.736408E-002,8.736408E-002,8.736408E-002,8.736408E-002,8.736408E-002,8.736408E-002,
   **   ~~~   ** Air System Named = CENTRAL SYSTEM did not converge for energy
   **   ~~~   ** Check values should be zero. Most Recent values listed first.
   **   ~~~   ** Demand-to-Supply interface energy check value iteration history trace: 1729.565838,1729.565838,1729.565838,1729.565838,1729.565837,1729.565837,1729.565837,1729.565837,1729.565837,1729.565837,
   **   ~~~   ** Supply-to-demand interface deck 1 energy check value iteration history trace: 2914.352737,2914.352737,2914.352736,2914.352736,2914.352736,2914.352736,2914.352736,2914.352736,2914.352736,2914.352735,
   ** Warning ** SimHVAC: Maximum iterations (20) exceeded for all HVAC loops, at ANNUAL, 04/16 09:35 - 09:40
   **   ~~~   ** The solution for one or more of the Air Loop HVAC systems did not appear to converge
   **   ~~~   ** Air System Named = CENTRAL SYSTEM did not converge for mass flow rate
   **   ~~~   ** Check values should be zero. Most Recent values listed first.
   **   ~~~   ** Demand-to-Supply interface mass flow rate check value iteration history trace: 8.460396E-002,8.460396E-002,8.460396E-002,8.460396E-002,8.460396E-002,8.460396E-002,8.460396E-002,8.460396E-002,8.460396E-002,8.460396E-002,
   **   ~~~   ** Supply-to-demand interface deck 1 mass flow rate check value iteration history trace: 8.460396E-002,8.460396E-002,8.460396E-002,8.460396E-002,8.460396E-002,8.460396E-002,8.460396E-002,8.460396E-002,8.460396E-002,8.460396E-002,
   **   ~~~   ** Air System Named = CENTRAL SYSTEM did not converge for energy
   **   ~~~   ** Check values should be zero. Most Recent values listed first.
   **   ~~~   ** Demand-to-Supply interface energy check value iteration history trace: 1676.559878,1676.559877,1676.559877,1676.559877,1676.559877,1676.559877,1676.559877,1676.559877,1676.559877,1676.559877,
   **   ~~~   ** Supply-to-demand interface deck 1 energy check value iteration history trace: 2896.190516,2896.190516,2896.190516,2896.190516,2896.190515,2896.190515,2896.190515,2896.190515,2896.190515,2896.190515,
   ** Warning ** SimHVAC: Maximum iterations (20) exceeded for all HVAC loops, at ANNUAL, 04/16 11:05 - 11:10
   **   ~~~   ** The solution for one or more of the Air Loop HVAC systems did not appear to converge
   **   ~~~   ** Air System Named = CENTRAL SYSTEM did not converge for mass flow rate
   **   ~~~   ** Check values should be zero. Most Recent values listed first.
   **   ~~~   ** Demand-to-Supply interface mass flow rate check value iteration history trace: 7.100873E-002,7.100873E-002,7.100873E-002,7.100873E-002,7.100873E-002,7.100873E-002,7.100873E-002,7.100873E-002,7.100873E-002,7.100873E-002,
   **   ~~~   ** Supply-to-demand interface deck 1 mass flow rate check value iteration history trace: 7.100873E-002,7.100873E-002,7.100873E-002,7.100873E-002,7.100873E-002,7.100873E-002,7.100873E-002,7.100873E-002,7.100873E-002,7.100873E-002,
   **   ~~~   ** Air System Named = CENTRAL SYSTEM did not converge for energy
   **   ~~~   ** Check values should be zero. Most Recent values listed first.
   **   ~~~   ** Demand-to-Supply interface energy check value iteration history trace: 1397.974080,1397.974080,1397.974080,1397.974079,1397.974079,1397.974079,1397.974079,1397.974079,1397.974079,1397.974079,
   **   ~~~   ** Supply-to-demand interface deck 1 energy check value iteration history trace: 2481.302946,2481.302946,2481.302946,2481.302946,2481.302946,2481.302946,2481.302946,2481.302945,2481.302945,2481.302945,
   ** Warning ** SimHVAC: Maximum iterations (20) exceeded for all HVAC loops, at ANNUAL, 05/06 08:40 - 08:42
   **   ~~~   ** The solution for one or more of the Air Loop HVAC systems did not appear to converge
   **   ~~~   ** Air System Named = CENTRAL SYSTEM did not converge for mass flow rate
   **   ~~~   ** Check values should be zero. Most Recent values listed first.
   **   ~~~   ** Demand-to-Supply interface mass flow rate check value iteration history trace: 8.769091E-002,8.769091E-002,8.769091E-002,8.769091E-002,8.769091E-002,8.769091E-002,8.769091E-002,8.769091E-002,8.769091E-002,8.769091E-002,
   **   ~~~   ** Supply-to-demand interface deck 1 mass flow rate check value iteration history trace: 8.769091E-002,8.769091E-002,8.769091E-002,8.769091E-002,8.769091E-002,8.769091E-002,8.769091E-002,8.769091E-002,8.769091E-002,8.769091E-002,
   **   ~~~   ** Air System Named = CENTRAL SYSTEM did not converge for energy
   **   ~~~   ** Check values should be zero. Most Recent values listed first.
   **   ~~~   ** Demand-to-Supply interface energy check value iteration history trace: 2067.480100,2067.480100,2067.480101,2067.480101,2067.480101,2067.480102,2067.480102,2067.480102,2067.480102,2067.480103,
   **   ~~~   ** Supply-to-demand interface deck 1 energy check value iteration history trace: 1013.290112,1013.290113,1013.290113,1013.290113,1013.290113,1013.290113,1013.290113,1013.290114,1013.290114,1013.290114,
   ** Warning ** SimHVAC: Maximum iterations (20) exceeded for all HVAC loops, at ANNUAL, 05/09 07:48 - 07:50
   **   ~~~   ** The solution for one or more of the Air Loop HVAC systems did not appear to converge
   **   ~~~   ** Air System Named = CENTRAL SYSTEM did not converge for mass flow rate
   **   ~~~   ** Check values should be zero. Most Recent values listed first.
   **   ~~~   ** Demand-to-Supply interface mass flow rate check value iteration history trace: 7.672769E-002,7.672769E-002,7.672769E-002,7.672769E-002,7.672769E-002,7.672769E-002,7.672769E-002,7.672769E-002,7.672769E-002,7.672769E-002,
   **   ~~~   ** Supply-to-demand interface deck 1 mass flow rate check value iteration history trace: 7.672769E-002,7.672769E-002,7.672769E-002,7.672769E-002,7.672769E-002,7.672769E-002,7.672769E-002,7.672769E-002,7.672769E-002,7.672769E-002,
   **   ~~~   ** Air System Named = CENTRAL SYSTEM did not converge for energy
   **   ~~~   ** Check values should be zero. Most Recent values listed first.
   **   ~~~   ** Demand-to-Supply interface energy check value iteration history trace: 1514.247211,1514.247210,1514.247210,1514.247210,1514.247210,1514.247210,1514.247210,1514.247210,1514.247210,1514.247210,
   **   ~~~   ** Supply-to-demand interface deck 1 energy check value iteration history trace: 2669.666216,2669.666215,2669.666215,2669.666215,2669.666215,2669.666215,2669.666215,2669.666215,2669.666215,2669.666214,
   ** Warning ** SimHVAC: Maximum iterations (20) exceeded for all HVAC loops, at ANNUAL, 05/14 11:40 - 11:45
   **   ~~~   ** The solution for one or more of the Air Loop HVAC systems did not appear to converge
   **   ~~~   ** Air System Named = CENTRAL SYSTEM did not converge for mass flow rate
   **   ~~~   ** Check values should be zero. Most Recent values listed first.
   **   ~~~   ** Demand-to-Supply interface mass flow rate check value iteration history trace: 0.290673,0.290673,0.290673,0.290673,0.290673,0.290673,0.290673,0.290673,0.290673,0.290673,
   **   ~~~   ** Supply-to-demand interface deck 1 mass flow rate check value iteration history trace: 0.290673,0.290673,0.290673,0.290673,0.290673,0.290673,0.290673,0.290673,0.290673,0.290673,
   **   ~~~   ** Air System Named = CENTRAL SYSTEM did not converge for energy
   **   ~~~   ** Check values should be zero. Most Recent values listed first.
   **   ~~~   ** Demand-to-Supply interface energy check value iteration history trace: 6934.631451,6934.631451,6934.631451,6934.631452,6934.631452,6934.631453,6934.631453,6934.631454,6934.631454,6934.631455,
   **   ~~~   ** Supply-to-demand interface deck 1 energy check value iteration history trace: 3627.814925,3627.814926,3627.814926,3627.814926,3627.814926,3627.814927,3627.814927,3627.814927,3627.814927,3627.814928,
   ** Warning ** SimHVAC: Maximum iterations (20) exceeded for all HVAC loops, at ANNUAL, 05/15 14:00 - 14:15
   **   ~~~   ** The solution for one or more of the Air Loop HVAC systems did not appear to converge
   **   ~~~   ** Air System Named = CENTRAL SYSTEM did not converge for mass flow rate
   **   ~~~   ** Check values should be zero. Most Recent values listed first.
   **   ~~~   ** Demand-to-Supply interface mass flow rate check value iteration history trace: 0.118376,0.118376,0.118376,0.118376,0.118376,0.118376,0.118376,0.118376,0.118376,0.118376,
   **   ~~~   ** Supply-to-demand interface deck 1 mass flow rate check value iteration history trace: 0.118376,0.118376,0.118376,0.118376,0.118376,0.118376,0.118376,0.118376,0.118376,0.118376,
   **   ~~~   ** Air System Named = CENTRAL SYSTEM did not converge for energy
   **   ~~~   ** Check values should be zero. Most Recent values listed first.
   **   ~~~   ** Demand-to-Supply interface energy check value iteration history trace: 2811.488983,2811.488983,2811.488983,2811.488983,2811.488984,2811.488984,2811.488984,2811.488984,2811.488984,2811.488985,
   **   ~~~   ** Supply-to-demand interface deck 1 energy check value iteration history trace: 1570.322343,1570.322343,1570.322343,1570.322343,1570.322343,1570.322343,1570.322344,1570.322344,1570.322344,1570.322344,
   ** Warning ** SimHVAC: Maximum iterations (20) exceeded for all HVAC loops, at ANNUAL, 05/15 20:30 - 20:45
   **   ~~~   ** The solution for one or more of the Air Loop HVAC systems did not appear to converge
   **   ~~~   ** Air System Named = CENTRAL SYSTEM did not converge for mass flow rate
   **   ~~~   ** Check values should be zero. Most Recent values listed first.
   **   ~~~   ** Demand-to-Supply interface mass flow rate check value iteration history trace: 0.144474,0.144474,0.144474,0.144474,0.144474,0.144474,0.144474,0.144474,0.144474,0.144474,
   **   ~~~   ** Supply-to-demand interface deck 1 mass flow rate check value iteration history trace: 0.144474,0.144474,0.144474,0.144474,0.144474,0.144474,0.144474,0.144474,0.144474,0.144474,
   **   ~~~   ** Air System Named = CENTRAL SYSTEM did not converge for energy
   **   ~~~   ** Check values should be zero. Most Recent values listed first.
   **   ~~~   ** Demand-to-Supply interface energy check value iteration history trace: 3468.720526,3468.720527,3468.720527,3468.720528,3468.720529,3468.720529,3468.720530,3468.720531,3468.720531,3468.720532,
   **   ~~~   ** Supply-to-demand interface deck 1 energy check value iteration history trace: 1779.242305,1779.242305,1779.242305,1779.242306,1779.242306,1779.242307,1779.242307,1779.242307,1779.242308,1779.242308,
   ************* Simulation Error Summary *************
   ** Warning ** The following Report Variables were requested but not generated -- check.rdd file
   **   ~~~   ** Either the IDF did not contain these elements, the variable name is misspelled,
   **   ~~~   ** or the requested variable is an advanced output which requires Output : Diagnostics, DisplayAdvancedReportVariables;
   ************* Key=*, VarName=BASEBOARD TOTAL HEATING ENERGY, Frequency=
   ************* Key=*, VarName=WATER HEATER NATURALGAS ENERGY, Frequency=
   ************* Key=*, VarName=COOLING COIL TOTAL HEATING ENERGY, Frequency=
   ************* There are 34 unused schedules in input.
   ************* There are 388 unused week schedules in input.
   ************* There are 396 unused day schedules in input.
   ************* Use Output:Diagnostics,DisplayUnusedSchedules; to see them.
   *************
   ************* ===== Recurring Error Summary =====
   ************* The following recurring error messages occurred.
   *************
   *************  ** Warning ** "TOTAL HOT WATER LOAD" - Target water temperature should be less than or equal to the hot water temperature error continues...
   *************  **   ~~~   **   This error occurred 104485 total times;
   *************  **   ~~~   **   during Warmup 0 times;
   *************  **   ~~~   **   during Sizing 0 times.
   *************  **   ~~~   **   Max=10.228507  Min=1.946542E-005
   *************
   *************  ** Warning ** Temperature out of range [-100. to 200.] (PsyPsatFnTemp)
   *************  **   ~~~   **   This error occurred 1 total times;
   *************  **   ~~~   **   during Warmup 0 times;
   *************  **   ~~~   **   during Sizing 0 times.
   *************  **   ~~~   **   Max=-297.932968 C  Min=-297.932968 C
   *************
   *************  ** Warning ** SimHVAC: Exceeding Maximum iterations for all HVAC loops, during ANNUAL continues
   *************  **   ~~~   **   This error occurred 3 total times;
   *************  **   ~~~   **   during Warmup 0 times;
   *************  **   ~~~   **   during Sizing 0 times.
   *************
   *************
   ************* ===== Final Error Summary =====
   ************* The following error categories occurred.  Consider correcting or noting.
   ************* Nominally Unused Constructions
   ************* ..The nominally unused constructions warning is provided to alert you to potential conditions that can cause
   ************* ..extra time during simulation. Each construction is calculated by the algorithm indicated in the HeatBalanceAlgorithm
   ************* ..object. You may remove the constructions indicated (when you use the DisplayExtraWarnings option).
   *************
   ************* EnergyPlus Warmup Error Summary. During Warmup: 1 Warning; 0 Severe Errors.
   ************* EnergyPlus Sizing Error Summary. During Sizing: 4 Warning; 0 Severe Errors.
   ************* EnergyPlus Completed Successfully-- 104521 Warning; 0 Severe Errors; Elapsed Time=00hr 05min 52.37sec
