Program Version,EnergyPlus, Version 22.2.0-c249759bad, YMD=2023.09.01 19:52,
   ************* Beginning Zone Sizing Calculations
   ** Warning ** ProcessScheduleInput: Schedule:Constant="ALWAYS ON DISCRETE", Schedule Type Limits Name="ONOFF" not found -- will not be validated
   ** Warning ** Foundation:Kiva="KIVA FOUNDATION", no Interior Horizontal Insulation Material Name defined
   **   ~~~   ** Interior Horizontal Insulation Depth will not be used.
   ** Warning ** CheckUsedConstructions: There are 15 nominally unused constructions in input.
   **   ~~~   ** Each Unused construction is shown.
   ************* Construction=INTERIOR FLOOR
   ************* Construction=INTERIOR WINDOW
   ************* Construction=EXTERIOR DOOR
   ************* Construction=INTERIOR DOOR
   ************* Construction=GABLE CONSTRUCTION
   ************* Construction=CRAWL_FLOOR
   ************* Construction=INSULATED PIPE
   ************* Construction=PLAIN PIPE
   ************* Construction=TDD PIPE
   ************* Construction=TDD DOME
   ************* Construction=TDD DIFFUSER
   ************* Construction=CRAWL WALL
   ************* Construction=CEILING-FLOOR-LAYER
   ************* Construction=SLAB CONSTRUCTION W FULL R10 INSULATION
   ************* Construction=SLAB CONSTRUCTION W FULL R5 INSULATION
   ** Warning ** GetDXCoils: Coil:Heating:DX:SingleSpeed="DX_HEATING_COIL" curve values
   **   ~~~   ** ... Defrost Energy Input Ratio Function of Temperature Curve Name = DEFROSTEIR output is not equal to 1.0 (+ or - 10%) at rated conditions.
   **   ~~~   ** ... Curve output at rated conditions = 0.152
   ************* Beginning System Sizing Calculations
   ************* Beginning Plant Sizing Calculations
   ** Warning ** Coil:WaterHeating:AirToWaterHeatPump:Wrapped "HEAT PUMP WATER HEATER EVAPORATOR": Rated air volume flow rate per watt of rated total water heating capacity is out of range
   **   ~~~   ** Min Rated Vol Flow Per Watt=[4.027E-005], Rated Vol Flow Per Watt=[1.510E-004], Max Rated Vol Flow Per Watt=[8.056E-005]. See Input-Output Reference Manual for valid range.
   ************* SizeFan: : Potential issue with equipment sizing for Fan:OnOff HEAT PUMP WATER HEATER FAN
   **   ~~~   ** User-Specified Maximum Flow Rate [m3/s] = 0.22653
   **   ~~~   ** differs from Design Size Maximum Flow Rate [m3/s] = 7.55250E-002
   **   ~~~   ** This may, or may not, indicate mismatched component sizes.
   **   ~~~   ** Verify that the value entered is intended and is consistent with other components.
   ** Warning ** Water heater = WATER HEATER TANK:  Recovery Efficiency and Energy Factor could not be calculated during the test for standard ratings
   **   ~~~   ** Setpoint was never recovered and/or heater never turned on
   ** Warning ** Check input. Pump nominal power or motor efficiency is set to 0, for pump=MAINS PRESSURE
   ** Warning ** Output:Meter: invalid Key Name="ELECTRIC_RANGE:INTERIOREQUIPMENT:ELECTRICITY" - not found.
   ** Warning ** Output:Meter: invalid Key Name="ELECTRIC_DRYER:INTERIOREQUIPMENT:ELECTRICITY" - not found.
   ** Warning ** Output:Meter: invalid Key Name="HEATRECOVERY:ELECTRICITY" - not found.
   ** Warning ** Output:Meter: invalid Key Name="HEATING:NATURALGAS" - not found.
   ** Warning ** Output:Meter: invalid Key Name="WATERSYSTEMS:NATURALGAS" - not found.
   ** Warning ** Output:Meter: invalid Key Name="PROPANE:FACILITY" - not found.
   ** Warning ** Output:Meter: invalid Key Name="HEATING:PROPANE" - not found.
   ************* Testing Individual Branch Integrity
   ************* All Branches passed integrity testing
   ************* Testing Individual Supply Air Path Integrity
   ************* All Supply Air Paths passed integrity testing
   ************* Testing Individual Return Air Path Integrity
   ************* All Return Air Paths passed integrity testing
   ************* No node connection errors were found.
   ************* Beginning Simulation
   ** Warning ** AirflowNetwork::Solver::validate_distribution: Heat pump water heater is simulated along with an AirflowNetwork but is not included in the AirflowNetwork.
   ** Warning ** CalcEquipmentFlowRates: "TOTAL HOT WATER LOAD" - Target water temperature is greater than the hot water temperature by (3.67 C)
   **   ~~~   **  Environment=EXTREME_WINTER, at Simulation time=01/27 06:00 - 06:15
   **   ~~~   ** ...target water temperature     = 53.33 C
   **   ~~~   ** ...hot water temperature        = 49.67 C
   **   ~~~   ** ...Target water temperature should be less than or equal to the hot water temperature. Verify temperature setpoints and schedules.
   ** Warning ** SimHVAC: Maximum iterations (20) exceeded for all HVAC loops, at EXTREME_WINTER, 01/27 10:40 - 10:45
   **   ~~~   ** The solution for one or more of the Air Loop HVAC systems did not appear to converge
   **   ~~~   ** Air System Named = CENTRAL SYSTEM did not converge for mass flow rate
   **   ~~~   ** Check values should be zero. Most Recent values listed first.
   **   ~~~   ** Demand-to-Supply interface mass flow rate check value iteration history trace: 8.032685E-002,8.032685E-002,8.032685E-002,8.032685E-002,8.032685E-002,8.032685E-002,8.032685E-002,8.032685E-002,8.032685E-002,8.032685E-002,
   **   ~~~   ** Supply-to-demand interface deck 1 mass flow rate check value iteration history trace: 8.032685E-002,8.032685E-002,8.032685E-002,8.032685E-002,8.032685E-002,8.032685E-002,8.032685E-002,8.032685E-002,8.032685E-002,8.032685E-002,
   **   ~~~   ** Air System Named = CENTRAL SYSTEM did not converge for energy
   **   ~~~   ** Check values should be zero. Most Recent values listed first.
   **   ~~~   ** Demand-to-Supply interface energy check value iteration history trace: 1587.303912,1587.303912,1587.303912,1587.303912,1587.303912,1587.303912,1587.303912,1587.303912,1587.303911,1587.303911,
   **   ~~~   ** Supply-to-demand interface deck 1 energy check value iteration history trace: 2491.504524,2491.504523,2491.504523,2491.504523,2491.504523,2491.504523,2491.504523,2491.504522,2491.504522,2491.504522,
   ** Warning ** SimHVAC: Maximum iterations (20) exceeded for all HVAC loops, at EXTREME_WINTER, 02/01 12:30 - 12:45
   **   ~~~   ** The solution for one or more of the Air Loop HVAC systems did not appear to converge
   **   ~~~   ** Air System Named = CENTRAL SYSTEM did not converge for mass flow rate
   **   ~~~   ** Check values should be zero. Most Recent values listed first.
   **   ~~~   ** Demand-to-Supply interface mass flow rate check value iteration history trace: 5.384071E-002,5.384071E-002,5.384071E-002,5.384071E-002,5.384071E-002,5.384071E-002,5.384071E-002,5.384071E-002,5.384071E-002,5.384071E-002,
   **   ~~~   ** Supply-to-demand interface deck 1 mass flow rate check value iteration history trace: 5.384071E-002,5.384071E-002,5.384071E-002,5.384071E-002,5.384071E-002,5.384071E-002,5.384071E-002,5.384071E-002,5.384071E-002,5.384071E-002,
   **   ~~~   ** Air System Named = CENTRAL SYSTEM did not converge for energy
   **   ~~~   ** Check values should be zero. Most Recent values listed first.
   **   ~~~   ** Demand-to-Supply interface energy check value iteration history trace: 1066.840054,1066.840054,1066.840054,1066.840053,1066.840053,1066.840053,1066.840053,1066.840052,1066.840052,1066.840052,
   **   ~~~   ** Supply-to-demand interface deck 1 energy check value iteration history trace: 1621.401149,1621.401149,1621.401149,1621.401148,1621.401148,1621.401148,1621.401147,1621.401147,1621.401146,1621.401146,
   ** Warning ** SimHVAC: Maximum iterations (20) exceeded for all HVAC loops, at ANNUAL, 01/23 11:15 - 11:19
   **   ~~~   ** The solution for one or more of the Air Loop HVAC systems did not appear to converge
   **   ~~~   ** Air System Named = CENTRAL SYSTEM did not converge for mass flow rate
   **   ~~~   ** Check values should be zero. Most Recent values listed first.
   **   ~~~   ** Demand-to-Supply interface mass flow rate check value iteration history trace: 7.729510E-002,7.729510E-002,7.729510E-002,7.729510E-002,7.729510E-002,7.729510E-002,7.729510E-002,7.729510E-002,7.729510E-002,7.729510E-002,
   **   ~~~   ** Supply-to-demand interface deck 1 mass flow rate check value iteration history trace: 7.729510E-002,7.729510E-002,7.729510E-002,7.729510E-002,7.729510E-002,7.729510E-002,7.729510E-002,7.729510E-002,7.729510E-002,7.729510E-002,
   **   ~~~   ** Air System Named = CENTRAL SYSTEM did not converge for energy
   **   ~~~   ** Check values should be zero. Most Recent values listed first.
   **   ~~~   ** Demand-to-Supply interface energy check value iteration history trace: 1531.707834,1531.707834,1531.707834,1531.707833,1531.707833,1531.707833,1531.707833,1531.707833,1531.707833,1531.707833,
   **   ~~~   ** Supply-to-demand interface deck 1 energy check value iteration history trace: 2352.337209,2352.337208,2352.337208,2352.337208,2352.337208,2352.337208,2352.337208,2352.337207,2352.337207,2352.337207,
   ** Warning ** SimHVAC: Maximum iterations (20) exceeded for all HVAC loops, at ANNUAL, 01/26 09:30 - 09:45
   **   ~~~   ** The solution for one or more of the Air Loop HVAC systems did not appear to converge
   **   ~~~   ** Air System Named = CENTRAL SYSTEM did not converge for mass flow rate
   **   ~~~   ** Check values should be zero. Most Recent values listed first.
   **   ~~~   ** Demand-to-Supply interface mass flow rate check value iteration history trace: 6.709579E-002,6.709579E-002,6.709579E-002,6.709579E-002,6.709579E-002,6.709579E-002,6.709579E-002,6.709579E-002,6.709579E-002,6.709579E-002,
   **   ~~~   ** Supply-to-demand interface deck 1 mass flow rate check value iteration history trace: 6.709579E-002,6.709579E-002,6.709579E-002,6.709579E-002,6.709579E-002,6.709579E-002,6.709579E-002,6.709579E-002,6.709579E-002,6.709579E-002,
   **   ~~~   ** Air System Named = CENTRAL SYSTEM did not converge for energy
   **   ~~~   ** Check values should be zero. Most Recent values listed first.
   **   ~~~   ** Demand-to-Supply interface energy check value iteration history trace: 1329.488881,1329.488881,1329.488881,1329.488881,1329.488880,1329.488880,1329.488880,1329.488880,1329.488880,1329.488880,
   **   ~~~   ** Supply-to-demand interface deck 1 energy check value iteration history trace: 2220.479119,2220.479119,2220.479119,2220.479119,2220.479119,2220.479119,2220.479119,2220.479119,2220.479118,2220.479118,
   ** Warning ** SimHVAC: Maximum iterations (20) exceeded for all HVAC loops, at ANNUAL, 02/03 22:15 - 22:22
   **   ~~~   ** The solution for one or more of the Air Loop HVAC systems did not appear to converge
   **   ~~~   ** Air System Named = CENTRAL SYSTEM did not converge for mass flow rate
   **   ~~~   ** Check values should be zero. Most Recent values listed first.
   **   ~~~   ** Demand-to-Supply interface mass flow rate check value iteration history trace: 9.626748E-002,9.626748E-002,9.626748E-002,9.626748E-002,9.626748E-002,9.626748E-002,9.626748E-002,9.626748E-002,9.626748E-002,9.626748E-002,
   **   ~~~   ** Supply-to-demand interface deck 1 mass flow rate check value iteration history trace: 9.626748E-002,9.626748E-002,9.626748E-002,9.626748E-002,9.626748E-002,9.626748E-002,9.626748E-002,9.626748E-002,9.626748E-002,9.626748E-002,
   **   ~~~   ** Air System Named = CENTRAL SYSTEM did not converge for energy
   **   ~~~   ** Check values should be zero. Most Recent values listed first.
   **   ~~~   ** Demand-to-Supply interface energy check value iteration history trace: 1828.185348,1828.185348,1828.185348,1828.185348,1828.185348,1828.185348,1828.185347,1828.185347,1828.185347,1828.185347,
   **   ~~~   ** Supply-to-demand interface deck 1 energy check value iteration history trace: 2734.318055,2734.318055,2734.318055,2734.318055,2734.318055,2734.318054,2734.318054,2734.318054,2734.318054,2734.318054,
   ** Warning ** SimHVAC: Maximum iterations (20) exceeded for all HVAC loops, at ANNUAL, 02/12 12:00 - 12:15
   **   ~~~   ** The solution for one or more of the Air Loop HVAC systems did not appear to converge
   **   ~~~   ** Air System Named = CENTRAL SYSTEM did not converge for mass flow rate
   **   ~~~   ** Check values should be zero. Most Recent values listed first.
   **   ~~~   ** Demand-to-Supply interface mass flow rate check value iteration history trace: 8.822233E-002,8.822233E-002,8.822233E-002,8.822233E-002,8.822233E-002,8.822233E-002,8.822233E-002,8.822233E-002,8.822233E-002,8.822233E-002,
   **   ~~~   ** Supply-to-demand interface deck 1 mass flow rate check value iteration history trace: 8.822233E-002,8.822233E-002,8.822233E-002,8.822233E-002,8.822233E-002,8.822233E-002,8.822233E-002,8.822233E-002,8.822233E-002,8.822233E-002,
   **   ~~~   ** Air System Named = CENTRAL SYSTEM did not converge for energy
   **   ~~~   ** Check values should be zero. Most Recent values listed first.
   **   ~~~   ** Demand-to-Supply interface energy check value iteration history trace: 1748.188926,1748.188926,1748.188926,1748.188925,1748.188925,1748.188925,1748.188925,1748.188925,1748.188925,1748.188925,
   **   ~~~   ** Supply-to-demand interface deck 1 energy check value iteration history trace: 2693.156417,2693.156417,2693.156416,2693.156416,2693.156416,2693.156416,2693.156416,2693.156416,2693.156415,2693.156415,
   ** Warning ** SimHVAC: Maximum iterations (20) exceeded for all HVAC loops, at ANNUAL, 02/15 18:00 - 18:15
   **   ~~~   ** The solution for one or more of the Air Loop HVAC systems did not appear to converge
   **   ~~~   ** Air System Named = CENTRAL SYSTEM did not converge for mass flow rate
   **   ~~~   ** Check values should be zero. Most Recent values listed first.
   **   ~~~   ** Demand-to-Supply interface mass flow rate check value iteration history trace: 9.237174E-002,9.237174E-002,9.237174E-002,9.237174E-002,9.237174E-002,9.237174E-002,9.237174E-002,9.237174E-002,9.237174E-002,9.237174E-002,
   **   ~~~   ** Supply-to-demand interface deck 1 mass flow rate check value iteration history trace: 9.237174E-002,9.237174E-002,9.237174E-002,9.237174E-002,9.237174E-002,9.237174E-002,9.237174E-002,9.237174E-002,9.237174E-002,9.237174E-002,
   **   ~~~   ** Air System Named = CENTRAL SYSTEM did not converge for energy
   **   ~~~   ** Check values should be zero. Most Recent values listed first.
   **   ~~~   ** Demand-to-Supply interface energy check value iteration history trace: 1817.795521,1817.795521,1817.795521,1817.795521,1817.795521,1817.795521,1817.795520,1817.795520,1817.795520,1817.795520,
   **   ~~~   ** Supply-to-demand interface deck 1 energy check value iteration history trace: 2794.356226,2794.356226,2794.356226,2794.356226,2794.356225,2794.356225,2794.356225,2794.356225,2794.356225,2794.356224,
   ** Warning ** SimHVAC: Maximum iterations (20) exceeded for all HVAC loops, at ANNUAL, 03/04 15:15 - 15:20
   **   ~~~   ** The solution for one or more of the Air Loop HVAC systems did not appear to converge
   **   ~~~   ** Air System Named = CENTRAL SYSTEM did not converge for mass flow rate
   **   ~~~   ** Check values should be zero. Most Recent values listed first.
   **   ~~~   ** Demand-to-Supply interface mass flow rate check value iteration history trace: 9.926008E-002,9.926008E-002,9.926008E-002,9.926008E-002,9.926008E-002,9.926008E-002,9.926008E-002,9.926008E-002,9.926008E-002,9.926008E-002,
   **   ~~~   ** Supply-to-demand interface deck 1 mass flow rate check value iteration history trace: 9.926008E-002,9.926008E-002,9.926008E-002,9.926008E-002,9.926008E-002,9.926008E-002,9.926008E-002,9.926008E-002,9.926008E-002,9.926008E-002,
   **   ~~~   ** Air System Named = CENTRAL SYSTEM did not converge for energy
   **   ~~~   ** Check values should be zero. Most Recent values listed first.
   **   ~~~   ** Demand-to-Supply interface energy check value iteration history trace: 1963.959652,1963.959652,1963.959652,1963.959652,1963.959651,1963.959651,1963.959651,1963.959651,1963.959651,1963.959651,
   **   ~~~   ** Supply-to-demand interface deck 1 energy check value iteration history trace: 2952.393620,2952.393620,2952.393620,2952.393619,2952.393619,2952.393619,2952.393619,2952.393619,2952.393618,2952.393618,
   ** Warning ** SimHVAC: Maximum iterations (20) exceeded for all HVAC loops, at ANNUAL, 03/05 11:15 - 11:17
   **   ~~~   ** The solution for one or more of the Air Loop HVAC systems did not appear to converge
   **   ~~~   ** Air System Named = CENTRAL SYSTEM did not converge for mass flow rate
   **   ~~~   ** Check values should be zero. Most Recent values listed first.
   **   ~~~   ** Demand-to-Supply interface mass flow rate check value iteration history trace: 9.964493E-002,9.964493E-002,9.964493E-002,9.964493E-002,9.964493E-002,9.964493E-002,9.964493E-002,9.964493E-002,9.964493E-002,9.964493E-002,
   **   ~~~   ** Supply-to-demand interface deck 1 mass flow rate check value iteration history trace: 9.964493E-002,9.964493E-002,9.964493E-002,9.964493E-002,9.964493E-002,9.964493E-002,9.964493E-002,9.964493E-002,9.964493E-002,9.964493E-002,
   **   ~~~   ** Air System Named = CENTRAL SYSTEM did not converge for energy
   **   ~~~   ** Check values should be zero. Most Recent values listed first.
   **   ~~~   ** Demand-to-Supply interface energy check value iteration history trace: 1974.722978,1974.722977,1974.722977,1974.722977,1974.722977,1974.722977,1974.722977,1974.722977,1974.722976,1974.722976,
   **   ~~~   ** Supply-to-demand interface deck 1 energy check value iteration history trace: 3019.502001,3019.502000,3019.502000,3019.502000,3019.502000,3019.501999,3019.501999,3019.501999,3019.501999,3019.501999,
   ** Warning ** SimHVAC: Maximum iterations (20) exceeded for all HVAC loops, at ANNUAL, 03/12 10:15 - 10:30
   **   ~~~   ** The solution for one or more of the Air Loop HVAC systems did not appear to converge
   **   ~~~   ** Air System Named = CENTRAL SYSTEM did not converge for mass flow rate
   **   ~~~   ** Check values should be zero. Most Recent values listed first.
   **   ~~~   ** Demand-to-Supply interface mass flow rate check value iteration history trace: 0.105149,0.105149,0.105149,0.105149,0.105149,0.105149,0.105149,0.105149,0.105149,0.105149,
   **   ~~~   ** Supply-to-demand interface deck 1 mass flow rate check value iteration history trace: 0.105149,0.105149,0.105149,0.105149,0.105149,0.105149,0.105149,0.105149,0.105149,0.105149,
   **   ~~~   ** Air System Named = CENTRAL SYSTEM did not converge for energy
   **   ~~~   ** Check values should be zero. Most Recent values listed first.
   **   ~~~   ** Demand-to-Supply interface energy check value iteration history trace: 2083.633432,2083.633431,2083.633431,2083.633431,2083.633431,2083.633431,2083.633431,2083.633431,2083.633430,2083.633430,
   **   ~~~   ** Supply-to-demand interface deck 1 energy check value iteration history trace: 3200.393838,3200.393837,3200.393837,3200.393837,3200.393837,3200.393837,3200.393836,3200.393836,3200.393836,3200.393836,
   ** Warning ** SimHVAC: Maximum iterations (20) exceeded for all HVAC loops, at ANNUAL, 03/13 17:30 - 17:35
   **   ~~~   ** The solution for one or more of the Air Loop HVAC systems did not appear to converge
   **   ~~~   ** Air System Named = CENTRAL SYSTEM did not converge for mass flow rate
   **   ~~~   ** Check values should be zero. Most Recent values listed first.
   **   ~~~   ** Demand-to-Supply interface mass flow rate check value iteration history trace: 0.107212,0.107212,0.107212,0.107212,0.107212,0.107212,0.107212,0.107212,0.107212,0.107212,
   **   ~~~   ** Supply-to-demand interface deck 1 mass flow rate check value iteration history trace: 0.107212,0.107212,0.107212,0.107212,0.107212,0.107212,0.107212,0.107212,0.107212,0.107212,
   **   ~~~   ** Air System Named = CENTRAL SYSTEM did not converge for energy
   **   ~~~   ** Check values should be zero. Most Recent values listed first.
   **   ~~~   ** Demand-to-Supply interface energy check value iteration history trace: 2114.902202,2114.902202,2114.902202,2114.902201,2114.902201,2114.902201,2114.902201,2114.902201,2114.902201,2114.902201,
   **   ~~~   ** Supply-to-demand interface deck 1 energy check value iteration history trace: 3192.980245,3192.980244,3192.980244,3192.980244,3192.980244,3192.980244,3192.980244,3192.980243,3192.980243,3192.980243,
   ** Warning ** SimHVAC: Maximum iterations (20) exceeded for all HVAC loops, at ANNUAL, 03/15 09:30 - 09:32
   **   ~~~   ** The solution for one or more of the Air Loop HVAC systems did not appear to converge
   **   ~~~   ** Air System Named = CENTRAL SYSTEM did not converge for mass flow rate
   **   ~~~   ** Check values should be zero. Most Recent values listed first.
   **   ~~~   ** Demand-to-Supply interface mass flow rate check value iteration history trace: 6.818298E-002,6.818298E-002,6.818298E-002,6.818298E-002,6.818298E-002,6.818298E-002,6.818298E-002,6.818298E-002,6.818298E-002,6.818298E-002,
   **   ~~~   ** Supply-to-demand interface deck 1 mass flow rate check value iteration history trace: 6.818298E-002,6.818298E-002,6.818298E-002,6.818298E-002,6.818298E-002,6.818298E-002,6.818298E-002,6.818298E-002,6.818298E-002,6.818298E-002,
   **   ~~~   ** Air System Named = CENTRAL SYSTEM did not converge for energy
   **   ~~~   ** Check values should be zero. Most Recent values listed first.
   **   ~~~   ** Demand-to-Supply interface energy check value iteration history trace: 1348.571119,1348.571119,1348.571119,1348.571119,1348.571119,1348.571119,1348.571119,1348.571118,1348.571118,1348.571118,
   **   ~~~   ** Supply-to-demand interface deck 1 energy check value iteration history trace: 2281.471757,2281.471757,2281.471757,2281.471757,2281.471757,2281.471757,2281.471756,2281.471756,2281.471756,2281.471756,
   ** Warning ** SimHVAC: Maximum iterations (20) exceeded for all HVAC loops, at ANNUAL, 03/16 20:15 - 20:30
   **   ~~~   ** The solution for one or more of the Air Loop HVAC systems did not appear to converge
   **   ~~~   ** Air System Named = CENTRAL SYSTEM did not converge for mass flow rate
   **   ~~~   ** Check values should be zero. Most Recent values listed first.
   **   ~~~   ** Demand-to-Supply interface mass flow rate check value iteration history trace: 9.913237E-002,9.913237E-002,9.913237E-002,9.913237E-002,9.913237E-002,9.913237E-002,9.913237E-002,9.913237E-002,9.913237E-002,9.913237E-002,
   **   ~~~   ** Supply-to-demand interface deck 1 mass flow rate check value iteration history trace: 9.913237E-002,9.913237E-002,9.913237E-002,9.913237E-002,9.913237E-002,9.913237E-002,9.913237E-002,9.913237E-002,9.913237E-002,9.913237E-002,
   **   ~~~   ** Air System Named = CENTRAL SYSTEM did not converge for energy
   **   ~~~   ** Check values should be zero. Most Recent values listed first.
   **   ~~~   ** Demand-to-Supply interface energy check value iteration history trace: 1960.229682,1960.229682,1960.229681,1960.229681,1960.229681,1960.229681,1960.229681,1960.229681,1960.229681,1960.229680,
   **   ~~~   ** Supply-to-demand interface deck 1 energy check value iteration history trace: 2965.324441,2965.324441,2965.324441,2965.324440,2965.324440,2965.324440,2965.324440,2965.324440,2965.324439,2965.324439,
   ** Warning ** SimHVAC: Maximum iterations (20) exceeded for all HVAC loops, at ANNUAL, 03/18 09:15 - 09:19
   **   ~~~   ** The solution for one or more of the Air Loop HVAC systems did not appear to converge
   **   ~~~   ** Air System Named = CENTRAL SYSTEM did not converge for mass flow rate
   **   ~~~   ** Check values should be zero. Most Recent values listed first.
   **   ~~~   ** Demand-to-Supply interface mass flow rate check value iteration history trace: 7.780865E-002,7.780865E-002,7.780865E-002,7.780865E-002,7.780865E-002,7.780865E-002,7.780865E-002,7.780865E-002,7.780865E-002,7.780865E-002,
   **   ~~~   ** Supply-to-demand interface deck 1 mass flow rate check value iteration history trace: 7.780865E-002,7.780865E-002,7.780865E-002,7.780865E-002,7.780865E-002,7.780865E-002,7.780865E-002,7.780865E-002,7.780865E-002,7.780865E-002,
   **   ~~~   ** Air System Named = CENTRAL SYSTEM did not converge for energy
   **   ~~~   ** Check values should be zero. Most Recent values listed first.
   **   ~~~   ** Demand-to-Supply interface energy check value iteration history trace: 1536.587718,1536.587718,1536.587718,1536.587718,1536.587718,1536.587718,1536.587718,1536.587718,1536.587717,1536.587717,
   **   ~~~   ** Supply-to-demand interface deck 1 energy check value iteration history trace: 2667.345963,2667.345963,2667.345963,2667.345963,2667.345962,2667.345962,2667.345962,2667.345962,2667.345962,2667.345962,
   ************* Simulation Error Summary *************
   ** Warning ** The following Report Variables were requested but not generated -- check.rdd file
   **   ~~~   ** Either the IDF did not contain these elements, the variable name is misspelled,
   **   ~~~   ** or the requested variable is an advanced output which requires Output : Diagnostics, DisplayAdvancedReportVariables;
   ************* Key=*, VarName=BASEBOARD TOTAL HEATING ENERGY, Frequency=
   ************* Key=*, VarName=WATER HEATER NATURALGAS ENERGY, Frequency=
   ************* Key=*, VarName=COOLING COIL TOTAL HEATING ENERGY, Frequency=
   ************* There are 34 unused schedules in input.
   ************* There are 388 unused week schedules in input.
   ************* There are 396 unused day schedules in input.
   ************* Use Output:Diagnostics,DisplayUnusedSchedules; to see them.
   *************
   ************* ===== Recurring Error Summary =====
   ************* The following recurring error messages occurred.
   *************
   *************  ** Warning ** "TOTAL HOT WATER LOAD" - Target water temperature should be less than or equal to the hot water temperature error continues...
   *************  **   ~~~   **   This error occurred 120433 total times;
   *************  **   ~~~   **   during Warmup 0 times;
   *************  **   ~~~   **   during Sizing 0 times.
   *************  **   ~~~   **   Max=12.969921  Min=8.202010E-005
   *************
   *************  ** Warning ** SimHVAC: Exceeding Maximum iterations for all HVAC loops, during ANNUAL continues
   *************  **   ~~~   **   This error occurred 15 total times;
   *************  **   ~~~   **   during Warmup 0 times;
   *************  **   ~~~   **   during Sizing 0 times.
   *************
   *************
   ************* ===== Final Error Summary =====
   ************* The following error categories occurred.  Consider correcting or noting.
   ************* Nominally Unused Constructions
   ************* ..The nominally unused constructions warning is provided to alert you to potential conditions that can cause
   ************* ..extra time during simulation. Each construction is calculated by the algorithm indicated in the HeatBalanceAlgorithm
   ************* ..object. You may remove the constructions indicated (when you use the DisplayExtraWarnings option).
   *************
   ************* EnergyPlus Warmup Error Summary. During Warmup: 1 Warning; 0 Severe Errors.
   ************* EnergyPlus Sizing Error Summary. During Sizing: 4 Warning; 0 Severe Errors.
   ************* EnergyPlus Completed Successfully-- 120479 Warning; 0 Severe Errors; Elapsed Time=00hr 01min 27.68sec
