Program Version,EnergyPlus, Version 22.2.0-c249759bad, YMD=2023.09.01 19:08,
   ************* Beginning Zone Sizing Calculations
   ** Warning ** ProcessScheduleInput: Schedule:Constant="ALWAYS ON DISCRETE", Schedule Type Limits Name="ONOFF" not found -- will not be validated
   ** Warning ** Foundation:Kiva="KIVA FOUNDATION", no Interior Horizontal Insulation Material Name defined
   **   ~~~   ** Interior Horizontal Insulation Depth will not be used.
   ** Warning ** CheckUsedConstructions: There are 15 nominally unused constructions in input.
   **   ~~~   ** Each Unused construction is shown.
   ************* Construction=INTERIOR FLOOR
   ************* Construction=INTERIOR WINDOW
   ************* Construction=EXTERIOR DOOR
   ************* Construction=INTERIOR DOOR
   ************* Construction=GABLE CONSTRUCTION
   ************* Construction=CRAWL_FLOOR
   ************* Construction=INSULATED PIPE
   ************* Construction=PLAIN PIPE
   ************* Construction=TDD PIPE
   ************* Construction=TDD DOME
   ************* Construction=TDD DIFFUSER
   ************* Construction=CRAWL WALL
   ************* Construction=CEILING-FLOOR-LAYER
   ************* Construction=SLAB CONSTRUCTION W FULL R10 INSULATION
   ************* Construction=SLAB CONSTRUCTION W FULL R5 INSULATION
   ** Warning ** GetDXCoils: Coil:Heating:DX:SingleSpeed="DX_HEATING_COIL" curve values
   **   ~~~   ** ... Defrost Energy Input Ratio Function of Temperature Curve Name = DEFROSTEIR output is not equal to 1.0 (+ or - 10%) at rated conditions.
   **   ~~~   ** ... Curve output at rated conditions = 0.152
   ************* Beginning System Sizing Calculations
   ************* Beginning Plant Sizing Calculations
   ** Warning ** Coil:WaterHeating:AirToWaterHeatPump:Wrapped "HEAT PUMP WATER HEATER EVAPORATOR": Rated air volume flow rate per watt of rated total water heating capacity is out of range
   **   ~~~   ** Min Rated Vol Flow Per Watt=[4.027E-005], Rated Vol Flow Per Watt=[1.510E-004], Max Rated Vol Flow Per Watt=[8.056E-005]. See Input-Output Reference Manual for valid range.
   ************* SizeFan: : Potential issue with equipment sizing for Fan:OnOff HEAT PUMP WATER HEATER FAN
   **   ~~~   ** User-Specified Maximum Flow Rate [m3/s] = 0.22653
   **   ~~~   ** differs from Design Size Maximum Flow Rate [m3/s] = 7.55250E-002
   **   ~~~   ** This may, or may not, indicate mismatched component sizes.
   **   ~~~   ** Verify that the value entered is intended and is consistent with other components.
   ** Warning ** Water heater = WATER HEATER TANK:  Recovery Efficiency and Energy Factor could not be calculated during the test for standard ratings
   **   ~~~   ** Setpoint was never recovered and/or heater never turned on
   ** Warning ** Check input. Pump nominal power or motor efficiency is set to 0, for pump=MAINS PRESSURE
   ** Warning ** Output:Meter: invalid Key Name="ELECTRIC_RANGE:INTERIOREQUIPMENT:ELECTRICITY" - not found.
   ** Warning ** Output:Meter: invalid Key Name="ELECTRIC_DRYER:INTERIOREQUIPMENT:ELECTRICITY" - not found.
   ** Warning ** Output:Meter: invalid Key Name="HEATRECOVERY:ELECTRICITY" - not found.
   ** Warning ** Output:Meter: invalid Key Name="HEATING:NATURALGAS" - not found.
   ** Warning ** Output:Meter: invalid Key Name="WATERSYSTEMS:NATURALGAS" - not found.
   ** Warning ** Output:Meter: invalid Key Name="PROPANE:FACILITY" - not found.
   ** Warning ** Output:Meter: invalid Key Name="HEATING:PROPANE" - not found.
   ************* Testing Individual Branch Integrity
   ************* All Branches passed integrity testing
   ************* Testing Individual Supply Air Path Integrity
   ************* All Supply Air Paths passed integrity testing
   ************* Testing Individual Return Air Path Integrity
   ************* All Return Air Paths passed integrity testing
   ************* No node connection errors were found.
   ************* Beginning Simulation
   ** Warning ** AirflowNetwork::Solver::validate_distribution: Heat pump water heater is simulated along with an AirflowNetwork but is not included in the AirflowNetwork.
   ** Warning ** CalcEquipmentFlowRates: "TOTAL HOT WATER LOAD" - Target water temperature is greater than the hot water temperature by (1.01 C)
   **   ~~~   **  Environment=EXTREME_WINTER, at Simulation time=01/08 06:45 - 07:00
   **   ~~~   ** ...target water temperature     = 53.33 C
   **   ~~~   ** ...hot water temperature        = 52.32 C
   **   ~~~   ** ...Target water temperature should be less than or equal to the hot water temperature. Verify temperature setpoints and schedules.
   ** Warning ** SimHVAC: Maximum iterations (20) exceeded for all HVAC loops, at ANNUAL, 02/11 23:30 - 23:45
   **   ~~~   ** The solution for one or more of the Air Loop HVAC systems did not appear to converge
   **   ~~~   ** Air System Named = CENTRAL SYSTEM did not converge for mass flow rate
   **   ~~~   ** Check values should be zero. Most Recent values listed first.
   **   ~~~   ** Demand-to-Supply interface mass flow rate check value iteration history trace: 6.257250E-002,6.257250E-002,6.257250E-002,6.257250E-002,6.257250E-002,6.257250E-002,6.257250E-002,6.257250E-002,6.257250E-002,6.257250E-002,
   **   ~~~   ** Supply-to-demand interface deck 1 mass flow rate check value iteration history trace: 6.257250E-002,6.257250E-002,6.257250E-002,6.257250E-002,6.257250E-002,6.257250E-002,6.257250E-002,6.257250E-002,6.257250E-002,6.257250E-002,
   **   ~~~   ** Air System Named = CENTRAL SYSTEM did not converge for energy
   **   ~~~   ** Check values should be zero. Most Recent values listed first.
   **   ~~~   ** Demand-to-Supply interface energy check value iteration history trace: 1169.345159,1169.345159,1169.345159,1169.345158,1169.345158,1169.345158,1169.345158,1169.345158,1169.345158,1169.345158,
   **   ~~~   ** Supply-to-demand interface deck 1 energy check value iteration history trace: 2011.302468,2011.302467,2011.302467,2011.302467,2011.302467,2011.302467,2011.302467,2011.302467,2011.302467,2011.302467,
   ** Warning ** SimHVAC: Maximum iterations (20) exceeded for all HVAC loops, at ANNUAL, 03/18 09:26 - 09:30
   **   ~~~   ** The solution for one or more of the Air Loop HVAC systems did not appear to converge
   **   ~~~   ** Air System Named = CENTRAL SYSTEM did not converge for mass flow rate
   **   ~~~   ** Check values should be zero. Most Recent values listed first.
   **   ~~~   ** Demand-to-Supply interface mass flow rate check value iteration history trace: 7.343479E-002,7.343479E-002,7.343479E-002,7.343479E-002,7.343479E-002,7.343479E-002,7.343479E-002,7.343479E-002,7.343479E-002,7.343479E-002,
   **   ~~~   ** Supply-to-demand interface deck 1 mass flow rate check value iteration history trace: 7.343479E-002,7.343479E-002,7.343479E-002,7.343479E-002,7.343479E-002,7.343479E-002,7.343479E-002,7.343479E-002,7.343479E-002,7.343479E-002,
   **   ~~~   ** Air System Named = CENTRAL SYSTEM did not converge for energy
   **   ~~~   ** Check values should be zero. Most Recent values listed first.
   **   ~~~   ** Demand-to-Supply interface energy check value iteration history trace: 1451.257635,1451.257635,1451.257635,1451.257635,1451.257635,1451.257635,1451.257635,1451.257635,1451.257635,1451.257635,
   **   ~~~   ** Supply-to-demand interface deck 1 energy check value iteration history trace: 2550.022598,2550.022598,2550.022598,2550.022598,2550.022598,2550.022598,2550.022598,2550.022597,2550.022597,2550.022597,
   ** Warning ** SimHVAC: Maximum iterations (20) exceeded for all HVAC loops, at ANNUAL, 03/20 09:00 - 09:02
   **   ~~~   ** The solution for one or more of the Air Loop HVAC systems did not appear to converge
   **   ~~~   ** Air System Named = CENTRAL SYSTEM did not converge for mass flow rate
   **   ~~~   ** Check values should be zero. Most Recent values listed first.
   **   ~~~   ** Demand-to-Supply interface mass flow rate check value iteration history trace: 8.427815E-002,8.427815E-002,8.427815E-002,8.427815E-002,8.427815E-002,8.427815E-002,8.427815E-002,8.427815E-002,8.427815E-002,8.427815E-002,
   **   ~~~   ** Supply-to-demand interface deck 1 mass flow rate check value iteration history trace: 8.427815E-002,8.427815E-002,8.427815E-002,8.427815E-002,8.427815E-002,8.427815E-002,8.427815E-002,8.427815E-002,8.427815E-002,8.427815E-002,
   **   ~~~   ** Air System Named = CENTRAL SYSTEM did not converge for energy
   **   ~~~   ** Check values should be zero. Most Recent values listed first.
   **   ~~~   ** Demand-to-Supply interface energy check value iteration history trace: 1670.039770,1670.039770,1670.039770,1670.039770,1670.039770,1670.039770,1670.039770,1670.039769,1670.039769,1670.039769,
   **   ~~~   ** Supply-to-demand interface deck 1 energy check value iteration history trace: 2613.843148,2613.843148,2613.843148,2613.843148,2613.843147,2613.843147,2613.843147,2613.843147,2613.843147,2613.843147,
   ** Warning ** SimHVAC: Maximum iterations (20) exceeded for all HVAC loops, at ANNUAL, 04/16 07:39 - 07:42
   **   ~~~   ** The solution for one or more of the Air Loop HVAC systems did not appear to converge
   **   ~~~   ** Air System Named = CENTRAL SYSTEM did not converge for mass flow rate
   **   ~~~   ** Check values should be zero. Most Recent values listed first.
   **   ~~~   ** Demand-to-Supply interface mass flow rate check value iteration history trace: 5.842990E-002,5.842990E-002,5.842990E-002,5.842990E-002,5.842990E-002,5.842990E-002,5.842990E-002,5.842990E-002,5.842990E-002,5.842990E-002,
   **   ~~~   ** Supply-to-demand interface deck 1 mass flow rate check value iteration history trace: 5.842990E-002,5.842990E-002,5.842990E-002,5.842990E-002,5.842990E-002,5.842990E-002,5.842990E-002,5.842990E-002,5.842990E-002,5.842990E-002,
   **   ~~~   ** Air System Named = CENTRAL SYSTEM did not converge for energy
   **   ~~~   ** Check values should be zero. Most Recent values listed first.
   **   ~~~   ** Demand-to-Supply interface energy check value iteration history trace: 1158.171040,1158.171040,1158.171040,1158.171040,1158.171040,1158.171040,1158.171040,1158.171039,1158.171039,1158.171039,
   **   ~~~   ** Supply-to-demand interface deck 1 energy check value iteration history trace: 1963.449249,1963.449249,1963.449249,1963.449249,1963.449249,1963.449249,1963.449249,1963.449249,1963.449249,1963.449249,
   ** Warning ** SimHVAC: Maximum iterations (20) exceeded for all HVAC loops, at ANNUAL, 10/21 11:23 - 11:30
   **   ~~~   ** The solution for one or more of the Air Loop HVAC systems did not appear to converge
   **   ~~~   ** Air System Named = CENTRAL SYSTEM did not converge for energy
   **   ~~~   ** Check values should be zero. Most Recent values listed first.
   **   ~~~   ** Demand-to-Supply interface energy check value iteration history trace: 140.556337,140.556337,140.556337,140.556337,140.556337,140.556337,140.556337,140.556337,140.556337,140.556337,
   **   ~~~   ** Supply-to-demand interface deck 1 energy check value iteration history trace: 56.613493,56.613493,56.613493,56.613493,56.613493,56.613493,56.613493,56.613493,56.613493,56.613493,
   ** Warning ** SimHVAC: Maximum iterations (20) exceeded for all HVAC loops, at ANNUAL, 10/21 20:00 - 20:15
   **   ~~~   ** The solution for one or more of the Air Loop HVAC systems did not appear to converge
   **   ~~~   ** Air System Named = CENTRAL SYSTEM did not converge for mass flow rate
   **   ~~~   ** Check values should be zero. Most Recent values listed first.
   **   ~~~   ** Demand-to-Supply interface mass flow rate check value iteration history trace: 0.120631,0.120631,0.120631,0.120631,0.120631,0.120631,0.120631,0.120631,0.120631,0.120631,
   **   ~~~   ** Supply-to-demand interface deck 1 mass flow rate check value iteration history trace: 0.120631,0.120631,0.120631,0.120631,0.120631,0.120631,0.120631,0.120631,0.120631,0.120631,
   **   ~~~   ** Air System Named = CENTRAL SYSTEM did not converge for energy
   **   ~~~   ** Check values should be zero. Most Recent values listed first.
   **   ~~~   ** Demand-to-Supply interface energy check value iteration history trace: 2908.384184,2908.384184,2908.384184,2908.384184,2908.384185,2908.384185,2908.384185,2908.384185,2908.384185,2908.384185,
   **   ~~~   ** Supply-to-demand interface deck 1 energy check value iteration history trace: 1217.205237,1217.205238,1217.205238,1217.205238,1217.205238,1217.205238,1217.205238,1217.205238,1217.205238,1217.205238,
   ** Warning ** SimHVAC: Maximum iterations (20) exceeded for all HVAC loops, at ANNUAL, 10/22 20:45 - 21:00
   **   ~~~   ** The solution for one or more of the Air Loop HVAC systems did not appear to converge
   **   ~~~   ** Air System Named = CENTRAL SYSTEM did not converge for energy
   **   ~~~   ** Check values should be zero. Most Recent values listed first.
   **   ~~~   ** Demand-to-Supply interface energy check value iteration history trace: 84.409278,84.409278,84.409278,84.409278,84.409278,84.409278,84.409278,84.409278,84.409278,84.409278,
   **   ~~~   ** Supply-to-demand interface deck 1 energy check value iteration history trace: 34.200025,34.200025,34.200025,34.200025,34.200025,34.200025,34.200025,34.200025,34.200025,34.200025,
   ** Warning ** SimHVAC: Maximum iterations (20) exceeded for all HVAC loops, at ANNUAL, 11/04 23:15 - 23:30
   **   ~~~   ** The solution for one or more of the Air Loop HVAC systems did not appear to converge
   **   ~~~   ** Air System Named = CENTRAL SYSTEM did not converge for mass flow rate
   **   ~~~   ** Check values should be zero. Most Recent values listed first.
   **   ~~~   ** Demand-to-Supply interface mass flow rate check value iteration history trace: 5.034883E-002,5.034883E-002,5.034883E-002,5.034883E-002,5.034883E-002,5.034883E-002,5.034883E-002,5.034883E-002,5.034883E-002,5.034883E-002,
   **   ~~~   ** Supply-to-demand interface deck 1 mass flow rate check value iteration history trace: 5.034883E-002,5.034883E-002,5.034883E-002,5.034883E-002,5.034883E-002,5.034883E-002,5.034883E-002,5.034883E-002,5.034883E-002,5.034883E-002,
   **   ~~~   ** Air System Named = CENTRAL SYSTEM did not converge for energy
   **   ~~~   ** Check values should be zero. Most Recent values listed first.
   **   ~~~   ** Demand-to-Supply interface energy check value iteration history trace: 934.618808,934.618808,934.618808,934.618808,934.618808,934.618808,934.618808,934.618808,934.618808,934.618808,
   **   ~~~   ** Supply-to-demand interface deck 1 energy check value iteration history trace: 1683.584616,1683.584616,1683.584616,1683.584616,1683.584616,1683.584616,1683.584616,1683.584616,1683.584615,1683.584615,
   ** Warning ** SimHVAC: Maximum iterations (20) exceeded for all HVAC loops, at ANNUAL, 11/05 17:53 - 18:00
   **   ~~~   ** The solution for one or more of the Air Loop HVAC systems did not appear to converge
   **   ~~~   ** Air System Named = CENTRAL SYSTEM did not converge for mass flow rate
   **   ~~~   ** Check values should be zero. Most Recent values listed first.
   **   ~~~   ** Demand-to-Supply interface mass flow rate check value iteration history trace: 5.556777E-002,5.556777E-002,5.556777E-002,5.556777E-002,5.556777E-002,5.556777E-002,5.556777E-002,5.556777E-002,5.556777E-002,5.556777E-002,
   **   ~~~   ** Supply-to-demand interface deck 1 mass flow rate check value iteration history trace: 5.556777E-002,5.556777E-002,5.556777E-002,5.556777E-002,5.556777E-002,5.556777E-002,5.556777E-002,5.556777E-002,5.556777E-002,5.556777E-002,
   **   ~~~   ** Air System Named = CENTRAL SYSTEM did not converge for energy
   **   ~~~   ** Check values should be zero. Most Recent values listed first.
   **   ~~~   ** Demand-to-Supply interface energy check value iteration history trace: 1091.354928,1091.354928,1091.354928,1091.354928,1091.354928,1091.354928,1091.354928,1091.354928,1091.354928,1091.354928,
   **   ~~~   ** Supply-to-demand interface deck 1 energy check value iteration history trace: 1903.762180,1903.762180,1903.762180,1903.762180,1903.762180,1903.762180,1903.762180,1903.762180,1903.762179,1903.762179,
   ** Warning ** SimHVAC: Maximum iterations (20) exceeded for all HVAC loops, at ANNUAL, 12/04 20:00 - 20:08
   **   ~~~   ** The solution for one or more of the Air Loop HVAC systems did not appear to converge
   **   ~~~   ** Air System Named = CENTRAL SYSTEM did not converge for mass flow rate
   **   ~~~   ** Check values should be zero. Most Recent values listed first.
   **   ~~~   ** Demand-to-Supply interface mass flow rate check value iteration history trace: 7.019450E-002,7.019450E-002,7.019450E-002,7.019450E-002,7.019450E-002,7.019450E-002,7.019450E-002,7.019450E-002,7.019450E-002,7.019450E-002,
   **   ~~~   ** Supply-to-demand interface deck 1 mass flow rate check value iteration history trace: 7.019450E-002,7.019450E-002,7.019450E-002,7.019450E-002,7.019450E-002,7.019450E-002,7.019450E-002,7.019450E-002,7.019450E-002,7.019450E-002,
   **   ~~~   ** Air System Named = CENTRAL SYSTEM did not converge for energy
   **   ~~~   ** Check values should be zero. Most Recent values listed first.
   **   ~~~   ** Demand-to-Supply interface energy check value iteration history trace: 1388.807984,1388.807984,1388.807984,1388.807984,1388.807984,1388.807984,1388.807984,1388.807984,1388.807984,1388.807984,
   **   ~~~   ** Supply-to-demand interface deck 1 energy check value iteration history trace: 2363.870317,2363.870317,2363.870317,2363.870317,2363.870316,2363.870316,2363.870316,2363.870316,2363.870316,2363.870316,
   ** Warning ** SimHVAC: Maximum iterations (20) exceeded for all HVAC loops, at ANNUAL, 12/14 13:00 - 13:15
   **   ~~~   ** The solution for one or more of the Air Loop HVAC systems did not appear to converge
   **   ~~~   ** Air System Named = CENTRAL SYSTEM did not converge for mass flow rate
   **   ~~~   ** Check values should be zero. Most Recent values listed first.
   **   ~~~   ** Demand-to-Supply interface mass flow rate check value iteration history trace: 6.179372E-002,6.179372E-002,6.179372E-002,6.179372E-002,6.179372E-002,6.179372E-002,6.179372E-002,6.179372E-002,6.179372E-002,6.179372E-002,
   **   ~~~   ** Supply-to-demand interface deck 1 mass flow rate check value iteration history trace: 6.179372E-002,6.179372E-002,6.179372E-002,6.179372E-002,6.179372E-002,6.179372E-002,6.179372E-002,6.179372E-002,6.179372E-002,6.179372E-002,
   **   ~~~   ** Air System Named = CENTRAL SYSTEM did not converge for energy
   **   ~~~   ** Check values should be zero. Most Recent values listed first.
   **   ~~~   ** Demand-to-Supply interface energy check value iteration history trace: 1196.943217,1196.943217,1196.943217,1196.943217,1196.943217,1196.943217,1196.943217,1196.943217,1196.943217,1196.943217,
   **   ~~~   ** Supply-to-demand interface deck 1 energy check value iteration history trace: 2026.736747,2026.736747,2026.736747,2026.736747,2026.736747,2026.736747,2026.736747,2026.736747,2026.736747,2026.736746,
   ** Warning ** SimHVAC: Maximum iterations (20) exceeded for all HVAC loops, at ANNUAL, 12/15 09:45 - 09:52
   **   ~~~   ** The solution for one or more of the Air Loop HVAC systems did not appear to converge
   **   ~~~   ** Air System Named = CENTRAL SYSTEM did not converge for mass flow rate
   **   ~~~   ** Check values should be zero. Most Recent values listed first.
   **   ~~~   ** Demand-to-Supply interface mass flow rate check value iteration history trace: 7.760303E-002,7.760303E-002,7.760303E-002,7.760303E-002,7.760303E-002,7.760303E-002,7.760303E-002,7.760303E-002,7.760303E-002,7.760303E-002,
   **   ~~~   ** Supply-to-demand interface deck 1 mass flow rate check value iteration history trace: 7.760303E-002,7.760303E-002,7.760303E-002,7.760303E-002,7.760303E-002,7.760303E-002,7.760303E-002,7.760303E-002,7.760303E-002,7.760303E-002,
   **   ~~~   ** Air System Named = CENTRAL SYSTEM did not converge for energy
   **   ~~~   ** Check values should be zero. Most Recent values listed first.
   **   ~~~   ** Demand-to-Supply interface energy check value iteration history trace: 1537.671357,1537.671357,1537.671356,1537.671356,1537.671356,1537.671356,1537.671356,1537.671356,1537.671356,1537.671356,
   **   ~~~   ** Supply-to-demand interface deck 1 energy check value iteration history trace: 2405.360154,2405.360154,2405.360154,2405.360154,2405.360154,2405.360154,2405.360154,2405.360153,2405.360153,2405.360153,
   ** Warning ** SimHVAC: Maximum iterations (20) exceeded for all HVAC loops, at ANNUAL, 12/23 13:15 - 13:30
   **   ~~~   ** The solution for one or more of the Air Loop HVAC systems did not appear to converge
   **   ~~~   ** Air System Named = CENTRAL SYSTEM did not converge for mass flow rate
   **   ~~~   ** Check values should be zero. Most Recent values listed first.
   **   ~~~   ** Demand-to-Supply interface mass flow rate check value iteration history trace: 5.829586E-002,5.829586E-002,5.829586E-002,5.829586E-002,5.829586E-002,5.829586E-002,5.829586E-002,5.829586E-002,5.829586E-002,5.829586E-002,
   **   ~~~   ** Supply-to-demand interface deck 1 mass flow rate check value iteration history trace: 5.829586E-002,5.829586E-002,5.829586E-002,5.829586E-002,5.829586E-002,5.829586E-002,5.829586E-002,5.829586E-002,5.829586E-002,5.829586E-002,
   **   ~~~   ** Air System Named = CENTRAL SYSTEM did not converge for energy
   **   ~~~   ** Check values should be zero. Most Recent values listed first.
   **   ~~~   ** Demand-to-Supply interface energy check value iteration history trace: 1127.612115,1127.612115,1127.612115,1127.612115,1127.612114,1127.612114,1127.612114,1127.612114,1127.612114,1127.612114,
   **   ~~~   ** Supply-to-demand interface deck 1 energy check value iteration history trace: 1975.017842,1975.017842,1975.017842,1975.017842,1975.017842,1975.017842,1975.017842,1975.017842,1975.017842,1975.017842,
   ************* Simulation Error Summary *************
   ** Warning ** The following Report Variables were requested but not generated -- check.rdd file
   **   ~~~   ** Either the IDF did not contain these elements, the variable name is misspelled,
   **   ~~~   ** or the requested variable is an advanced output which requires Output : Diagnostics, DisplayAdvancedReportVariables;
   ************* Key=*, VarName=BASEBOARD TOTAL HEATING ENERGY, Frequency=
   ************* Key=*, VarName=WATER HEATER NATURALGAS ENERGY, Frequency=
   ************* Key=*, VarName=COOLING COIL TOTAL HEATING ENERGY, Frequency=
   ************* There are 34 unused schedules in input.
   ************* There are 388 unused week schedules in input.
   ************* There are 397 unused day schedules in input.
   ************* Use Output:Diagnostics,DisplayUnusedSchedules; to see them.
   *************
   ************* ===== Recurring Error Summary =====
   ************* The following recurring error messages occurred.
   *************
   *************  ** Warning ** "TOTAL HOT WATER LOAD" - Target water temperature should be less than or equal to the hot water temperature error continues...
   *************  **   ~~~   **   This error occurred 87979 total times;
   *************  **   ~~~   **   during Warmup 0 times;
   *************  **   ~~~   **   during Sizing 0 times.
   *************  **   ~~~   **   Max=9.668198  Min=5.964842E-004
   *************
   *************
   ************* ===== Final Error Summary =====
   ************* The following error categories occurred.  Consider correcting or noting.
   ************* Nominally Unused Constructions
   ************* ..The nominally unused constructions warning is provided to alert you to potential conditions that can cause
   ************* ..extra time during simulation. Each construction is calculated by the algorithm indicated in the HeatBalanceAlgorithm
   ************* ..object. You may remove the constructions indicated (when you use the DisplayExtraWarnings option).
   *************
   ************* EnergyPlus Warmup Error Summary. During Warmup: 1 Warning; 0 Severe Errors.
   ************* EnergyPlus Sizing Error Summary. During Sizing: 4 Warning; 0 Severe Errors.
   ************* EnergyPlus Completed Successfully-- 88009 Warning; 0 Severe Errors; Elapsed Time=00hr 01min 25.06sec
