Program Version,EnergyPlus, Version 22.2.0-c249759bad, YMD=2023.09.01 19:56,
   ************* Beginning Zone Sizing Calculations
   ** Warning ** ProcessScheduleInput: Schedule:Constant="ALWAYS ON DISCRETE", Schedule Type Limits Name="ONOFF" not found -- will not be validated
   ** Warning ** Foundation:Kiva="KIVA FOUNDATION", no Interior Horizontal Insulation Material Name defined
   **   ~~~   ** Interior Horizontal Insulation Depth will not be used.
   ** Warning ** CheckUsedConstructions: There are 15 nominally unused constructions in input.
   **   ~~~   ** Each Unused construction is shown.
   ************* Construction=INTERIOR FLOOR
   ************* Construction=INTERIOR WINDOW
   ************* Construction=EXTERIOR DOOR
   ************* Construction=INTERIOR DOOR
   ************* Construction=GABLE CONSTRUCTION
   ************* Construction=CRAWL_FLOOR
   ************* Construction=INSULATED PIPE
   ************* Construction=PLAIN PIPE
   ************* Construction=TDD PIPE
   ************* Construction=TDD DOME
   ************* Construction=TDD DIFFUSER
   ************* Construction=CRAWL WALL
   ************* Construction=CEILING-FLOOR-LAYER
   ************* Construction=SLAB CONSTRUCTION W FULL R10 INSULATION
   ************* Construction=SLAB CONSTRUCTION W FULL R5 INSULATION
   ** Warning ** GetDXCoils: Coil:Heating:DX:SingleSpeed="DX_HEATING_COIL" curve values
   **   ~~~   ** ... Defrost Energy Input Ratio Function of Temperature Curve Name = DEFROSTEIR output is not equal to 1.0 (+ or - 10%) at rated conditions.
   **   ~~~   ** ... Curve output at rated conditions = 0.152
   ************* Beginning System Sizing Calculations
   ************* Beginning Plant Sizing Calculations
   ** Warning ** SizeDXCoil Coil:Cooling:DX:SingleSpeed DX_COOLING_COIL
   **   ~~~   ** ...Gross Rated Total Cooling Capacity [W] will be limited by the maximum rated volume flow per rated total capacity ratio.
   **   ~~~   ** ...DX coil volume flow rate ( m3/s ) = 0.440488
   **   ~~~   ** ...Requested capacity ( W ) = 5413.019
   **   ~~~   ** ...Requested flow/capacity ratio ( m3/s/W ) = 8.137E-005
   **   ~~~   ** ...Maximum flow/capacity ratio ( m3/s/W ) = 6.041E-005
   **   ~~~   ** ...Adjusted capacity ( W ) = 7291.650
   ** Warning ** Coil:WaterHeating:AirToWaterHeatPump:Wrapped "HEAT PUMP WATER HEATER EVAPORATOR": Rated air volume flow rate per watt of rated total water heating capacity is out of range
   **   ~~~   ** Min Rated Vol Flow Per Watt=[4.027E-005], Rated Vol Flow Per Watt=[1.510E-004], Max Rated Vol Flow Per Watt=[8.056E-005]. See Input-Output Reference Manual for valid range.
   ************* SizeFan: : Potential issue with equipment sizing for Fan:OnOff HEAT PUMP WATER HEATER FAN
   **   ~~~   ** User-Specified Maximum Flow Rate [m3/s] = 0.22653
   **   ~~~   ** differs from Design Size Maximum Flow Rate [m3/s] = 7.55250E-002
   **   ~~~   ** This may, or may not, indicate mismatched component sizes.
   **   ~~~   ** Verify that the value entered is intended and is consistent with other components.
   ** Warning ** Water heater = WATER HEATER TANK:  Recovery Efficiency and Energy Factor could not be calculated during the test for standard ratings
   **   ~~~   ** Setpoint was never recovered and/or heater never turned on
   ** Warning ** Check input. Pump nominal power or motor efficiency is set to 0, for pump=MAINS PRESSURE
   ** Warning ** Output:Meter: invalid Key Name="ELECTRIC_RANGE:INTERIOREQUIPMENT:ELECTRICITY" - not found.
   ** Warning ** Output:Meter: invalid Key Name="ELECTRIC_DRYER:INTERIOREQUIPMENT:ELECTRICITY" - not found.
   ** Warning ** Output:Meter: invalid Key Name="HEATRECOVERY:ELECTRICITY" - not found.
   ** Warning ** Output:Meter: invalid Key Name="HEATING:NATURALGAS" - not found.
   ** Warning ** Output:Meter: invalid Key Name="WATERSYSTEMS:NATURALGAS" - not found.
   ** Warning ** Output:Meter: invalid Key Name="PROPANE:FACILITY" - not found.
   ** Warning ** Output:Meter: invalid Key Name="HEATING:PROPANE" - not found.
   ************* Testing Individual Branch Integrity
   ************* All Branches passed integrity testing
   ************* Testing Individual Supply Air Path Integrity
   ************* All Supply Air Paths passed integrity testing
   ************* Testing Individual Return Air Path Integrity
   ************* All Return Air Paths passed integrity testing
   ************* No node connection errors were found.
   ************* Beginning Simulation
   ** Warning ** AirflowNetwork::Solver::validate_distribution: Heat pump water heater is simulated along with an AirflowNetwork but is not included in the AirflowNetwork.
   ** Warning ** CalcEquipmentFlowRates: "TOTAL HOT WATER LOAD" - Target water temperature is greater than the hot water temperature by (4.10 C)
   **   ~~~   **  Environment=EXTREME_WINTER, at Simulation time=01/06 07:00 - 07:15
   **   ~~~   ** ...target water temperature     = 53.33 C
   **   ~~~   ** ...hot water temperature        = 49.24 C
   **   ~~~   ** ...Target water temperature should be less than or equal to the hot water temperature. Verify temperature setpoints and schedules.
   ** Warning ** SimHVAC: Maximum iterations (20) exceeded for all HVAC loops, at EXTREME_WINTER, 01/09 12:23 - 12:30
   **   ~~~   ** The solution for one or more of the Air Loop HVAC systems did not appear to converge
   **   ~~~   ** Air System Named = CENTRAL SYSTEM did not converge for mass flow rate
   **   ~~~   ** Check values should be zero. Most Recent values listed first.
   **   ~~~   ** Demand-to-Supply interface mass flow rate check value iteration history trace: 7.433756E-002,7.433756E-002,7.433756E-002,7.433756E-002,7.433756E-002,7.433756E-002,7.433756E-002,7.433756E-002,7.433756E-002,7.433756E-002,
   **   ~~~   ** Supply-to-demand interface deck 1 mass flow rate check value iteration history trace: 7.433756E-002,7.433756E-002,7.433756E-002,7.433756E-002,7.433756E-002,7.433756E-002,7.433756E-002,7.433756E-002,7.433756E-002,7.433756E-002,
   **   ~~~   ** Air System Named = CENTRAL SYSTEM did not converge for energy
   **   ~~~   ** Check values should be zero. Most Recent values listed first.
   **   ~~~   ** Demand-to-Supply interface energy check value iteration history trace: 1473.175166,1473.175166,1473.175166,1473.175166,1473.175166,1473.175165,1473.175165,1473.175165,1473.175165,1473.175165,
   **   ~~~   ** Supply-to-demand interface deck 1 energy check value iteration history trace: 2329.325135,2329.325135,2329.325135,2329.325134,2329.325134,2329.325134,2329.325134,2329.325134,2329.325134,2329.325134,
   ** Warning ** SimHVAC: Maximum iterations (20) exceeded for all HVAC loops, at ANNUAL, 01/09 18:20 - 18:25
   **   ~~~   ** The solution for one or more of the Air Loop HVAC systems did not appear to converge
   **   ~~~   ** Air System Named = CENTRAL SYSTEM did not converge for mass flow rate
   **   ~~~   ** Check values should be zero. Most Recent values listed first.
   **   ~~~   ** Demand-to-Supply interface mass flow rate check value iteration history trace: 7.435082E-002,7.435082E-002,7.435082E-002,7.435082E-002,7.435082E-002,7.435082E-002,7.435082E-002,7.435082E-002,7.435082E-002,7.435082E-002,
   **   ~~~   ** Supply-to-demand interface deck 1 mass flow rate check value iteration history trace: 7.435082E-002,7.435082E-002,7.435082E-002,7.435082E-002,7.435082E-002,7.435082E-002,7.435082E-002,7.435082E-002,7.435082E-002,7.435082E-002,
   **   ~~~   ** Air System Named = CENTRAL SYSTEM did not converge for energy
   **   ~~~   ** Check values should be zero. Most Recent values listed first.
   **   ~~~   ** Demand-to-Supply interface energy check value iteration history trace: 1467.587303,1467.587303,1467.587303,1467.587303,1467.587303,1467.587303,1467.587303,1467.587303,1467.587302,1467.587302,
   **   ~~~   ** Supply-to-demand interface deck 1 energy check value iteration history trace: 2280.814879,2280.814879,2280.814879,2280.814879,2280.814879,2280.814878,2280.814878,2280.814878,2280.814878,2280.814878,
   ** Warning ** SimHVAC: Maximum iterations (20) exceeded for all HVAC loops, at ANNUAL, 01/13 12:06 - 12:09
   **   ~~~   ** The solution for one or more of the Air Loop HVAC systems did not appear to converge
   **   ~~~   ** Air System Named = CENTRAL SYSTEM did not converge for mass flow rate
   **   ~~~   ** Check values should be zero. Most Recent values listed first.
   **   ~~~   ** Demand-to-Supply interface mass flow rate check value iteration history trace: 5.189570E-002,5.189570E-002,5.189570E-002,5.189570E-002,5.189570E-002,5.189570E-002,5.189570E-002,5.189570E-002,5.189570E-002,5.189570E-002,
   **   ~~~   ** Supply-to-demand interface deck 1 mass flow rate check value iteration history trace: 5.189570E-002,5.189570E-002,5.189570E-002,5.189570E-002,5.189570E-002,5.189570E-002,5.189570E-002,5.189570E-002,5.189570E-002,5.189570E-002,
   **   ~~~   ** Air System Named = CENTRAL SYSTEM did not converge for energy
   **   ~~~   ** Check values should be zero. Most Recent values listed first.
   **   ~~~   ** Demand-to-Supply interface energy check value iteration history trace: 1024.760305,1024.760305,1024.760305,1024.760305,1024.760305,1024.760305,1024.760305,1024.760305,1024.760305,1024.760305,
   **   ~~~   ** Supply-to-demand interface deck 1 energy check value iteration history trace: 1909.915168,1909.915168,1909.915168,1909.915168,1909.915168,1909.915168,1909.915168,1909.915168,1909.915168,1909.915168,
   ** Warning ** SimHVAC: Maximum iterations (20) exceeded for all HVAC loops, at ANNUAL, 01/29 10:20 - 10:22
   **   ~~~   ** The solution for one or more of the Air Loop HVAC systems did not appear to converge
   **   ~~~   ** Air System Named = CENTRAL SYSTEM did not converge for mass flow rate
   **   ~~~   ** Check values should be zero. Most Recent values listed first.
   **   ~~~   ** Demand-to-Supply interface mass flow rate check value iteration history trace: 5.555933E-002,5.555933E-002,5.555933E-002,5.555933E-002,5.555933E-002,5.555933E-002,5.555933E-002,5.555933E-002,5.555933E-002,5.555933E-002,
   **   ~~~   ** Supply-to-demand interface deck 1 mass flow rate check value iteration history trace: 5.555933E-002,5.555933E-002,5.555933E-002,5.555933E-002,5.555933E-002,5.555933E-002,5.555933E-002,5.555933E-002,5.555933E-002,5.555933E-002,
   **   ~~~   ** Air System Named = CENTRAL SYSTEM did not converge for energy
   **   ~~~   ** Check values should be zero. Most Recent values listed first.
   **   ~~~   ** Demand-to-Supply interface energy check value iteration history trace: 1099.741286,1099.741286,1099.741286,1099.741286,1099.741286,1099.741286,1099.741286,1099.741286,1099.741286,1099.741286,
   **   ~~~   ** Supply-to-demand interface deck 1 energy check value iteration history trace: 2149.639904,2149.639904,2149.639904,2149.639904,2149.639904,2149.639904,2149.639904,2149.639904,2149.639904,2149.639904,
   ** Warning ** SimHVAC: Maximum iterations (20) exceeded for all HVAC loops, at ANNUAL, 01/29 12:25 - 12:30
   **   ~~~   ** The solution for one or more of the Air Loop HVAC systems did not appear to converge
   **   ~~~   ** Air System Named = CENTRAL SYSTEM did not converge for mass flow rate
   **   ~~~   ** Check values should be zero. Most Recent values listed first.
   **   ~~~   ** Demand-to-Supply interface mass flow rate check value iteration history trace: 4.616519E-002,4.616519E-002,4.616519E-002,4.616519E-002,4.616519E-002,4.616519E-002,4.616519E-002,4.616519E-002,4.616519E-002,4.616519E-002,
   **   ~~~   ** Supply-to-demand interface deck 1 mass flow rate check value iteration history trace: 4.616519E-002,4.616519E-002,4.616519E-002,4.616519E-002,4.616519E-002,4.616519E-002,4.616519E-002,4.616519E-002,4.616519E-002,4.616519E-002,
   **   ~~~   ** Air System Named = CENTRAL SYSTEM did not converge for energy
   **   ~~~   ** Check values should be zero. Most Recent values listed first.
   **   ~~~   ** Demand-to-Supply interface energy check value iteration history trace: 905.571838,905.571838,905.571838,905.571838,905.571838,905.571838,905.571838,905.571838,905.571838,905.571838,
   **   ~~~   ** Supply-to-demand interface deck 1 energy check value iteration history trace: 1778.510138,1778.510138,1778.510138,1778.510138,1778.510138,1778.510138,1778.510138,1778.510138,1778.510138,1778.510138,
   ** Warning ** SimHVAC: Maximum iterations (20) exceeded for all HVAC loops, at ANNUAL, 02/05 12:45 - 12:47
   **   ~~~   ** The solution for one or more of the Air Loop HVAC systems did not appear to converge
   **   ~~~   ** Air System Named = CENTRAL SYSTEM did not converge for mass flow rate
   **   ~~~   ** Check values should be zero. Most Recent values listed first.
   **   ~~~   ** Demand-to-Supply interface mass flow rate check value iteration history trace: 6.652626E-002,6.652626E-002,6.652626E-002,6.652626E-002,6.652626E-002,6.652626E-002,6.652626E-002,6.652626E-002,6.652626E-002,6.652626E-002,
   **   ~~~   ** Supply-to-demand interface deck 1 mass flow rate check value iteration history trace: 6.652626E-002,6.652626E-002,6.652626E-002,6.652626E-002,6.652626E-002,6.652626E-002,6.652626E-002,6.652626E-002,6.652626E-002,6.652626E-002,
   **   ~~~   ** Air System Named = CENTRAL SYSTEM did not converge for energy
   **   ~~~   ** Check values should be zero. Most Recent values listed first.
   **   ~~~   ** Demand-to-Supply interface energy check value iteration history trace: 1318.372398,1318.372398,1318.372398,1318.372398,1318.372398,1318.372398,1318.372398,1318.372398,1318.372398,1318.372397,
   **   ~~~   ** Supply-to-demand interface deck 1 energy check value iteration history trace: 2118.044013,2118.044012,2118.044012,2118.044012,2118.044012,2118.044012,2118.044012,2118.044012,2118.044012,2118.044012,
   ** Warning ** SimHVAC: Maximum iterations (20) exceeded for all HVAC loops, at ANNUAL, 02/09 09:45 - 10:00
   **   ~~~   ** The solution for one or more of the Air Loop HVAC systems did not appear to converge
   **   ~~~   ** Air System Named = CENTRAL SYSTEM did not converge for mass flow rate
   **   ~~~   ** Check values should be zero. Most Recent values listed first.
   **   ~~~   ** Demand-to-Supply interface mass flow rate check value iteration history trace: 7.121250E-002,7.121250E-002,7.121250E-002,7.121250E-002,7.121250E-002,7.121250E-002,7.121250E-002,7.121250E-002,7.121250E-002,7.121250E-002,
   **   ~~~   ** Supply-to-demand interface deck 1 mass flow rate check value iteration history trace: 7.121250E-002,7.121250E-002,7.121250E-002,7.121250E-002,7.121250E-002,7.121250E-002,7.121250E-002,7.121250E-002,7.121250E-002,7.121250E-002,
   **   ~~~   ** Air System Named = CENTRAL SYSTEM did not converge for energy
   **   ~~~   ** Check values should be zero. Most Recent values listed first.
   **   ~~~   ** Demand-to-Supply interface energy check value iteration history trace: 1411.178535,1411.178535,1411.178535,1411.178535,1411.178535,1411.178534,1411.178534,1411.178534,1411.178534,1411.178534,
   **   ~~~   ** Supply-to-demand interface deck 1 energy check value iteration history trace: 2458.522244,2458.522244,2458.522244,2458.522244,2458.522244,2458.522243,2458.522243,2458.522243,2458.522243,2458.522243,
   ** Warning ** SimHVAC: Maximum iterations (20) exceeded for all HVAC loops, at ANNUAL, 02/13 11:00 - 11:15
   **   ~~~   ** The solution for one or more of the Air Loop HVAC systems did not appear to converge
   **   ~~~   ** Air System Named = CENTRAL SYSTEM did not converge for mass flow rate
   **   ~~~   ** Check values should be zero. Most Recent values listed first.
   **   ~~~   ** Demand-to-Supply interface mass flow rate check value iteration history trace: 5.390276E-002,5.390276E-002,5.390276E-002,5.390276E-002,5.390276E-002,5.390276E-002,5.390276E-002,5.390276E-002,5.390276E-002,5.390276E-002,
   **   ~~~   ** Supply-to-demand interface deck 1 mass flow rate check value iteration history trace: 5.390276E-002,5.390276E-002,5.390276E-002,5.390276E-002,5.390276E-002,5.390276E-002,5.390276E-002,5.390276E-002,5.390276E-002,5.390276E-002,
   **   ~~~   ** Air System Named = CENTRAL SYSTEM did not converge for energy
   **   ~~~   ** Check values should be zero. Most Recent values listed first.
   **   ~~~   ** Demand-to-Supply interface energy check value iteration history trace: 1065.710498,1065.710498,1065.710498,1065.710498,1065.710498,1065.710498,1065.710498,1065.710498,1065.710498,1065.710498,
   **   ~~~   ** Supply-to-demand interface deck 1 energy check value iteration history trace: 2017.834846,2017.834846,2017.834846,2017.834846,2017.834846,2017.834846,2017.834846,2017.834846,2017.834846,2017.834846,
   ** Warning ** SimHVAC: Maximum iterations (20) exceeded for all HVAC loops, at ANNUAL, 02/13 18:45 - 19:00
   **   ~~~   ** The solution for one or more of the Air Loop HVAC systems did not appear to converge
   **   ~~~   ** Air System Named = CENTRAL SYSTEM did not converge for mass flow rate
   **   ~~~   ** Check values should be zero. Most Recent values listed first.
   **   ~~~   ** Demand-to-Supply interface mass flow rate check value iteration history trace: 5.296000E-002,5.296000E-002,5.296000E-002,5.296000E-002,5.296000E-002,5.296000E-002,5.296000E-002,5.296000E-002,5.296000E-002,5.296000E-002,
   **   ~~~   ** Supply-to-demand interface deck 1 mass flow rate check value iteration history trace: 5.296000E-002,5.296000E-002,5.296000E-002,5.296000E-002,5.296000E-002,5.296000E-002,5.296000E-002,5.296000E-002,5.296000E-002,5.296000E-002,
   **   ~~~   ** Air System Named = CENTRAL SYSTEM did not converge for energy
   **   ~~~   ** Check values should be zero. Most Recent values listed first.
   **   ~~~   ** Demand-to-Supply interface energy check value iteration history trace: 1048.775495,1048.775495,1048.775495,1048.775495,1048.775495,1048.775495,1048.775495,1048.775495,1048.775495,1048.775495,
   **   ~~~   ** Supply-to-demand interface deck 1 energy check value iteration history trace: 1792.685993,1792.685993,1792.685993,1792.685993,1792.685993,1792.685993,1792.685992,1792.685992,1792.685992,1792.685992,
   ** Warning ** SimHVAC: Maximum iterations (20) exceeded for all HVAC loops, at ANNUAL, 02/23 11:45 - 11:52
   **   ~~~   ** The solution for one or more of the Air Loop HVAC systems did not appear to converge
   **   ~~~   ** Air System Named = CENTRAL SYSTEM did not converge for mass flow rate
   **   ~~~   ** Check values should be zero. Most Recent values listed first.
   **   ~~~   ** Demand-to-Supply interface mass flow rate check value iteration history trace: 7.996551E-002,7.996551E-002,7.996551E-002,7.996551E-002,7.996551E-002,7.996551E-002,7.996551E-002,7.996551E-002,7.996551E-002,7.996551E-002,
   **   ~~~   ** Supply-to-demand interface deck 1 mass flow rate check value iteration history trace: 7.996551E-002,7.996551E-002,7.996551E-002,7.996551E-002,7.996551E-002,7.996551E-002,7.996551E-002,7.996551E-002,7.996551E-002,7.996551E-002,
   **   ~~~   ** Air System Named = CENTRAL SYSTEM did not converge for energy
   **   ~~~   ** Check values should be zero. Most Recent values listed first.
   **   ~~~   ** Demand-to-Supply interface energy check value iteration history trace: 1584.443585,1584.443585,1584.443585,1584.443585,1584.443585,1584.443584,1584.443584,1584.443584,1584.443584,1584.443584,
   **   ~~~   ** Supply-to-demand interface deck 1 energy check value iteration history trace: 2530.743906,2530.743906,2530.743906,2530.743906,2530.743906,2530.743905,2530.743905,2530.743905,2530.743905,2530.743905,
   ** Warning ** SimHVAC: Maximum iterations (20) exceeded for all HVAC loops, at ANNUAL, 02/24 18:30 - 18:38
   **   ~~~   ** The solution for one or more of the Air Loop HVAC systems did not appear to converge
   **   ~~~   ** Air System Named = CENTRAL SYSTEM did not converge for mass flow rate
   **   ~~~   ** Check values should be zero. Most Recent values listed first.
   **   ~~~   ** Demand-to-Supply interface mass flow rate check value iteration history trace: 7.381149E-002,7.381149E-002,7.381149E-002,7.381149E-002,7.381149E-002,7.381149E-002,7.381149E-002,7.381149E-002,7.381149E-002,7.381149E-002,
   **   ~~~   ** Supply-to-demand interface deck 1 mass flow rate check value iteration history trace: 7.381149E-002,7.381149E-002,7.381149E-002,7.381149E-002,7.381149E-002,7.381149E-002,7.381149E-002,7.381149E-002,7.381149E-002,7.381149E-002,
   **   ~~~   ** Air System Named = CENTRAL SYSTEM did not converge for energy
   **   ~~~   ** Check values should be zero. Most Recent values listed first.
   **   ~~~   ** Demand-to-Supply interface energy check value iteration history trace: 1462.440146,1462.440146,1462.440146,1462.440146,1462.440145,1462.440145,1462.440145,1462.440145,1462.440145,1462.440145,
   **   ~~~   ** Supply-to-demand interface deck 1 energy check value iteration history trace: 2453.749649,2453.749649,2453.749649,2453.749649,2453.749648,2453.749648,2453.749648,2453.749648,2453.749648,2453.749648,
   ** Warning ** CalcDoe2DXCoil: Coil:Cooling:DX:SingleSpeed "DX_COOLING_COIL" - Air-cooled condenser inlet dry-bulb temperature below 0 C. Outdoor dry-bulb temperature = -0.60
   **   ~~~   **  ... Occurrence info = ANNUAL, 02/25 19:45 - 19:48
   **   ~~~   ** ... Operation at low ambient temperatures may require special performance curves.
   ** Warning ** SimHVAC: Maximum iterations (20) exceeded for all HVAC loops, at ANNUAL, 03/09 11:04 - 11:08
   **   ~~~   ** The solution for one or more of the Air Loop HVAC systems did not appear to converge
   **   ~~~   ** Air System Named = CENTRAL SYSTEM did not converge for mass flow rate
   **   ~~~   ** Check values should be zero. Most Recent values listed first.
   **   ~~~   ** Demand-to-Supply interface mass flow rate check value iteration history trace: 5.669024E-002,5.669024E-002,5.669024E-002,5.669024E-002,5.669024E-002,5.669024E-002,5.669024E-002,5.669024E-002,5.669024E-002,5.669024E-002,
   **   ~~~   ** Supply-to-demand interface deck 1 mass flow rate check value iteration history trace: 5.669024E-002,5.669024E-002,5.669024E-002,5.669024E-002,5.669024E-002,5.669024E-002,5.669024E-002,5.669024E-002,5.669024E-002,5.669024E-002,
   **   ~~~   ** Air System Named = CENTRAL SYSTEM did not converge for energy
   **   ~~~   ** Check values should be zero. Most Recent values listed first.
   **   ~~~   ** Demand-to-Supply interface energy check value iteration history trace: 1118.087193,1118.087193,1118.087193,1118.087193,1118.087193,1118.087193,1118.087193,1118.087193,1118.087193,1118.087193,
   **   ~~~   ** Supply-to-demand interface deck 1 energy check value iteration history trace: 2119.680796,2119.680796,2119.680796,2119.680796,2119.680796,2119.680796,2119.680796,2119.680796,2119.680796,2119.680796,
   ** Warning ** SimHVAC: Maximum iterations (20) exceeded for all HVAC loops, at ANNUAL, 03/12 01:00 - 01:15
   **   ~~~   ** The solution for one or more of the Air Loop HVAC systems did not appear to converge
   **   ~~~   ** Air System Named = CENTRAL SYSTEM did not converge for mass flow rate
   **   ~~~   ** Check values should be zero. Most Recent values listed first.
   **   ~~~   ** Demand-to-Supply interface mass flow rate check value iteration history trace: 5.303192E-002,5.303192E-002,5.303192E-002,5.303192E-002,5.303192E-002,5.303192E-002,5.303192E-002,5.303192E-002,5.303192E-002,5.303192E-002,
   **   ~~~   ** Supply-to-demand interface deck 1 mass flow rate check value iteration history trace: 5.303192E-002,5.303192E-002,5.303192E-002,5.303192E-002,5.303192E-002,5.303192E-002,5.303192E-002,5.303192E-002,5.303192E-002,5.303192E-002,
   **   ~~~   ** Air System Named = CENTRAL SYSTEM did not converge for energy
   **   ~~~   ** Check values should be zero. Most Recent values listed first.
   **   ~~~   ** Demand-to-Supply interface energy check value iteration history trace: 990.598358,990.598358,990.598358,990.598358,990.598358,990.598358,990.598358,990.598358,990.598358,990.598358,
   **   ~~~   ** Supply-to-demand interface deck 1 energy check value iteration history trace: 1683.646805,1683.646805,1683.646805,1683.646805,1683.646805,1683.646805,1683.646805,1683.646805,1683.646805,1683.646805,
   ** Warning ** SimHVAC: Maximum iterations (20) exceeded for all HVAC loops, at ANNUAL, 03/15 08:32 - 08:34
   **   ~~~   ** The solution for one or more of the Air Loop HVAC systems did not appear to converge
   **   ~~~   ** Air System Named = CENTRAL SYSTEM did not converge for mass flow rate
   **   ~~~   ** Check values should be zero. Most Recent values listed first.
   **   ~~~   ** Demand-to-Supply interface mass flow rate check value iteration history trace: 5.024503E-002,5.024503E-002,5.024503E-002,5.024503E-002,5.024503E-002,5.024503E-002,5.024503E-002,5.024503E-002,5.024503E-002,5.024503E-002,
   **   ~~~   ** Supply-to-demand interface deck 1 mass flow rate check value iteration history trace: 5.024503E-002,5.024503E-002,5.024503E-002,5.024503E-002,5.024503E-002,5.024503E-002,5.024503E-002,5.024503E-002,5.024503E-002,5.024503E-002,
   **   ~~~   ** Air System Named = CENTRAL SYSTEM did not converge for energy
   **   ~~~   ** Check values should be zero. Most Recent values listed first.
   **   ~~~   ** Demand-to-Supply interface energy check value iteration history trace: 995.729043,995.729043,995.729043,995.729043,995.729043,995.729043,995.729043,995.729043,995.729043,995.729043,
   **   ~~~   ** Supply-to-demand interface deck 1 energy check value iteration history trace: 1896.161814,1896.161814,1896.161814,1896.161814,1896.161814,1896.161814,1896.161814,1896.161814,1896.161814,1896.161814,
   ** Warning ** Temperature out of range [-100. to 200.] (PsyPsatFnTemp)
   **   ~~~   **  Routine=PsyTwbFnTdbWPb, Environment=ANNUAL, at Simulation time=03/19 15:45 - 15:52
   **   ~~~   **  Input Temperature=-177.27
   ************* Simulation Error Summary *************
   ** Warning ** The following Report Variables were requested but not generated -- check.rdd file
   **   ~~~   ** Either the IDF did not contain these elements, the variable name is misspelled,
   **   ~~~   ** or the requested variable is an advanced output which requires Output : Diagnostics, DisplayAdvancedReportVariables;
   ************* Key=*, VarName=BASEBOARD TOTAL HEATING ENERGY, Frequency=
   ************* Key=*, VarName=WATER HEATER NATURALGAS ENERGY, Frequency=
   ************* Key=*, VarName=COOLING COIL TOTAL HEATING ENERGY, Frequency=
   ************* There are 34 unused schedules in input.
   ************* There are 388 unused week schedules in input.
   ************* There are 396 unused day schedules in input.
   ************* Use Output:Diagnostics,DisplayUnusedSchedules; to see them.
   *************
   ************* ===== Recurring Error Summary =====
   ************* The following recurring error messages occurred.
   *************
   *************  ** Warning ** "TOTAL HOT WATER LOAD" - Target water temperature should be less than or equal to the hot water temperature error continues...
   *************  **   ~~~   **   This error occurred 219293 total times;
   *************  **   ~~~   **   during Warmup 0 times;
   *************  **   ~~~   **   during Sizing 0 times.
   *************  **   ~~~   **   Max=14.387459  Min=2.974540E-003
   *************
   *************  ** Warning ** CalcDoe2DXCoil: Coil:Cooling:DX:SingleSpeed="DX_COOLING_COIL" - Low condenser dry-bulb temperature error continues...
   *************  **   ~~~   **   This error occurred 81 total times;
   *************  **   ~~~   **   during Warmup 0 times;
   *************  **   ~~~   **   during Sizing 0 times.
   *************  **   ~~~   **   Max=-0.1 [C]  Min=-1.7 [C]
   *************
   *************  ** Warning ** Temperature out of range [-100. to 200.] (PsyPsatFnTemp)
   *************  **   ~~~   **   This error occurred 3 total times;
   *************  **   ~~~   **   during Warmup 0 times;
   *************  **   ~~~   **   during Sizing 0 times.
   *************  **   ~~~   **   Max=-135.13385 C  Min=-407.070114 C
   *************
   *************  ** Warning ** SimHVAC: Exceeding Maximum iterations for all HVAC loops, during ANNUAL continues
   *************  **   ~~~   **   This error occurred 26 total times;
   *************  **   ~~~   **   during Warmup 0 times;
   *************  **   ~~~   **   during Sizing 0 times.
   *************
   *************
   ************* ===== Final Error Summary =====
   ************* The following error categories occurred.  Consider correcting or noting.
   ************* Nominally Unused Constructions
   ************* ..The nominally unused constructions warning is provided to alert you to potential conditions that can cause
   ************* ..extra time during simulation. Each construction is calculated by the algorithm indicated in the HeatBalanceAlgorithm
   ************* ..object. You may remove the constructions indicated (when you use the DisplayExtraWarnings option).
   *************
   ************* EnergyPlus Warmup Error Summary. During Warmup: 1 Warning; 0 Severe Errors.
   ************* EnergyPlus Sizing Error Summary. During Sizing: 4 Warning; 0 Severe Errors.
   ************* EnergyPlus Completed Successfully-- 219435 Warning; 0 Severe Errors; Elapsed Time=00hr 01min 49.97sec
