Program Version,EnergyPlus, Version 22.2.0-c249759bad, YMD=2023.09.01 18:49,
   ************* Beginning Zone Sizing Calculations
   ** Warning ** ProcessScheduleInput: Schedule:Constant="ALWAYS ON DISCRETE", Schedule Type Limits Name="ONOFF" not found -- will not be validated
   ** Warning ** Foundation:Kiva="KIVA FOUNDATION", no Interior Horizontal Insulation Material Name defined
   **   ~~~   ** Interior Horizontal Insulation Depth will not be used.
   ** Warning ** CheckUsedConstructions: There are 15 nominally unused constructions in input.
   **   ~~~   ** Each Unused construction is shown.
   ************* Construction=INTERIOR FLOOR
   ************* Construction=INTERIOR WINDOW
   ************* Construction=EXTERIOR DOOR
   ************* Construction=INTERIOR DOOR
   ************* Construction=GABLE CONSTRUCTION
   ************* Construction=CRAWL_FLOOR
   ************* Construction=INSULATED PIPE
   ************* Construction=PLAIN PIPE
   ************* Construction=TDD PIPE
   ************* Construction=TDD DOME
   ************* Construction=TDD DIFFUSER
   ************* Construction=CRAWL WALL
   ************* Construction=CEILING-FLOOR-LAYER
   ************* Construction=SLAB CONSTRUCTION W FULL R10 INSULATION
   ************* Construction=SLAB CONSTRUCTION W FULL R5 INSULATION
   ** Warning ** GetDXCoils: Coil:Heating:DX:SingleSpeed="DX_HEATING_COIL" curve values
   **   ~~~   ** ... Defrost Energy Input Ratio Function of Temperature Curve Name = DEFROSTEIR output is not equal to 1.0 (+ or - 10%) at rated conditions.
   **   ~~~   ** ... Curve output at rated conditions = 0.152
   ************* Beginning System Sizing Calculations
   ************* Beginning Plant Sizing Calculations
   ** Warning ** SizeDXCoil Coil:Cooling:DX:SingleSpeed DX_COOLING_COIL
   **   ~~~   ** ...Gross Rated Total Cooling Capacity [W] will be limited by the maximum rated volume flow per rated total capacity ratio.
   **   ~~~   ** ...DX coil volume flow rate ( m3/s ) = 0.205521
   **   ~~~   ** ...Requested capacity ( W ) = 2953.398
   **   ~~~   ** ...Requested flow/capacity ratio ( m3/s/W ) = 6.958E-005
   **   ~~~   ** ...Maximum flow/capacity ratio ( m3/s/W ) = 6.041E-005
   **   ~~~   ** ...Adjusted capacity ( W ) = 3402.118
   ** Warning ** Coil:WaterHeating:AirToWaterHeatPump:Wrapped "HEAT PUMP WATER HEATER EVAPORATOR": Rated air volume flow rate per watt of rated total water heating capacity is out of range
   **   ~~~   ** Min Rated Vol Flow Per Watt=[4.027E-005], Rated Vol Flow Per Watt=[1.510E-004], Max Rated Vol Flow Per Watt=[8.056E-005]. See Input-Output Reference Manual for valid range.
   ************* SizeFan: : Potential issue with equipment sizing for Fan:OnOff HEAT PUMP WATER HEATER FAN
   **   ~~~   ** User-Specified Maximum Flow Rate [m3/s] = 0.22653
   **   ~~~   ** differs from Design Size Maximum Flow Rate [m3/s] = 7.55250E-002
   **   ~~~   ** This may, or may not, indicate mismatched component sizes.
   **   ~~~   ** Verify that the value entered is intended and is consistent with other components.
   ** Warning ** Water heater = WATER HEATER TANK:  Recovery Efficiency and Energy Factor could not be calculated during the test for standard ratings
   **   ~~~   ** Setpoint was never recovered and/or heater never turned on
   ** Warning ** Check input. Pump nominal power or motor efficiency is set to 0, for pump=MAINS PRESSURE
   ** Warning ** Output:Meter: invalid Key Name="ELECTRIC_RANGE:INTERIOREQUIPMENT:ELECTRICITY" - not found.
   ** Warning ** Output:Meter: invalid Key Name="ELECTRIC_DRYER:INTERIOREQUIPMENT:ELECTRICITY" - not found.
   ** Warning ** Output:Meter: invalid Key Name="HEATRECOVERY:ELECTRICITY" - not found.
   ** Warning ** Output:Meter: invalid Key Name="HEATING:NATURALGAS" - not found.
   ** Warning ** Output:Meter: invalid Key Name="WATERSYSTEMS:NATURALGAS" - not found.
   ** Warning ** Output:Meter: invalid Key Name="PROPANE:FACILITY" - not found.
   ** Warning ** Output:Meter: invalid Key Name="HEATING:PROPANE" - not found.
   ************* Testing Individual Branch Integrity
   ************* All Branches passed integrity testing
   ************* Testing Individual Supply Air Path Integrity
   ************* All Supply Air Paths passed integrity testing
   ************* Testing Individual Return Air Path Integrity
   ************* All Return Air Paths passed integrity testing
   ************* No node connection errors were found.
   ************* Beginning Simulation
   ** Warning ** AirflowNetwork::Solver::validate_distribution: Heat pump water heater is simulated along with an AirflowNetwork but is not included in the AirflowNetwork.
   ** Warning ** CalcEquipmentFlowRates: "TOTAL HOT WATER LOAD" - Target water temperature is greater than the hot water temperature by (0.95 C)
   **   ~~~   **  Environment=EXTREME_WINTER, at Simulation time=01/01 03:45 - 04:00
   **   ~~~   ** ...target water temperature     = 53.33 C
   **   ~~~   ** ...hot water temperature        = 52.38 C
   **   ~~~   ** ...Target water temperature should be less than or equal to the hot water temperature. Verify temperature setpoints and schedules.
   ** Warning ** SimHVAC: Maximum iterations (20) exceeded for all HVAC loops, at EXTREME_SUMMER, 08/19 08:30 - 08:45
   **   ~~~   ** The solution for one or more of the Air Loop HVAC systems did not appear to converge
   **   ~~~   ** Air System Named = CENTRAL SYSTEM did not converge for mass flow rate
   **   ~~~   ** Check values should be zero. Most Recent values listed first.
   **   ~~~   ** Demand-to-Supply interface mass flow rate check value iteration history trace: 4.584479E-002,4.584479E-002,4.584479E-002,4.584479E-002,4.584479E-002,4.584479E-002,4.584479E-002,4.584479E-002,4.584479E-002,4.584479E-002,
   **   ~~~   ** Supply-to-demand interface deck 1 mass flow rate check value iteration history trace: 4.584479E-002,4.584479E-002,4.584479E-002,4.584479E-002,4.584479E-002,4.584479E-002,4.584479E-002,4.584479E-002,4.584479E-002,4.584479E-002,
   **   ~~~   ** Air System Named = CENTRAL SYSTEM did not converge for energy
   **   ~~~   ** Check values should be zero. Most Recent values listed first.
   **   ~~~   ** Demand-to-Supply interface energy check value iteration history trace: 897.512296,897.512296,897.512296,897.512296,897.512296,897.512296,897.512296,897.512296,897.512296,897.512296,
   **   ~~~   ** Supply-to-demand interface deck 1 energy check value iteration history trace: 1627.776241,1627.776241,1627.776241,1627.776241,1627.776241,1627.776241,1627.776241,1627.776241,1627.776241,1627.776241,
   ** Warning ** SimHVAC: Maximum iterations (20) exceeded for all HVAC loops, at ANNUAL, 01/07 10:00 - 10:15
   **   ~~~   ** The solution for one or more of the Air Loop HVAC systems did not appear to converge
   **   ~~~   ** Air System Named = CENTRAL SYSTEM did not converge for mass flow rate
   **   ~~~   ** Check values should be zero. Most Recent values listed first.
   **   ~~~   ** Demand-to-Supply interface mass flow rate check value iteration history trace: 7.623831E-002,7.623831E-002,7.623831E-002,7.623831E-002,7.623831E-002,7.623831E-002,7.623831E-002,7.623831E-002,7.623831E-002,7.623831E-002,
   **   ~~~   ** Supply-to-demand interface deck 1 mass flow rate check value iteration history trace: 7.623831E-002,7.623831E-002,7.623831E-002,7.623831E-002,7.623831E-002,7.623831E-002,7.623831E-002,7.623831E-002,7.623831E-002,7.623831E-002,
   **   ~~~   ** Air System Named = CENTRAL SYSTEM did not converge for energy
   **   ~~~   ** Check values should be zero. Most Recent values listed first.
   **   ~~~   ** Demand-to-Supply interface energy check value iteration history trace: 1510.549899,1510.549899,1510.549899,1510.549898,1510.549898,1510.549898,1510.549898,1510.549898,1510.549898,1510.549898,
   **   ~~~   ** Supply-to-demand interface deck 1 energy check value iteration history trace: 2551.499991,2551.499991,2551.499991,2551.499991,2551.499991,2551.499991,2551.499991,2551.499991,2551.499990,2551.499990,
   ** Warning ** SimHVAC: Maximum iterations (20) exceeded for all HVAC loops, at ANNUAL, 01/16 19:30 - 19:45
   **   ~~~   ** The solution for one or more of the Air Loop HVAC systems did not appear to converge
   **   ~~~   ** Air System Named = CENTRAL SYSTEM did not converge for mass flow rate
   **   ~~~   ** Check values should be zero. Most Recent values listed first.
   **   ~~~   ** Demand-to-Supply interface mass flow rate check value iteration history trace: 2.414693E-002,2.414693E-002,2.414693E-002,2.414693E-002,2.414693E-002,2.414693E-002,2.414693E-002,2.414693E-002,2.414693E-002,2.414693E-002,
   **   ~~~   ** Supply-to-demand interface deck 1 mass flow rate check value iteration history trace: 2.414693E-002,2.414693E-002,2.414693E-002,2.414693E-002,2.414693E-002,2.414693E-002,2.414693E-002,2.414693E-002,2.414693E-002,2.414693E-002,
   **   ~~~   ** Air System Named = CENTRAL SYSTEM did not converge for energy
   **   ~~~   ** Check values should be zero. Most Recent values listed first.
   **   ~~~   ** Demand-to-Supply interface energy check value iteration history trace: 478.493242,478.493242,478.493242,478.493242,478.493242,478.493242,478.493242,478.493241,478.493241,478.493241,
   **   ~~~   ** Supply-to-demand interface deck 1 energy check value iteration history trace: 845.509300,845.509300,845.509300,845.509300,845.509300,845.509300,845.509300,845.509300,845.509300,845.509300,
   ** Warning ** SimHVAC: Maximum iterations (20) exceeded for all HVAC loops, at ANNUAL, 01/26 07:45 - 08:00
   **   ~~~   ** The solution for one or more of the Air Loop HVAC systems did not appear to converge
   **   ~~~   ** Air System Named = CENTRAL SYSTEM did not converge for mass flow rate
   **   ~~~   ** Check values should be zero. Most Recent values listed first.
   **   ~~~   ** Demand-to-Supply interface mass flow rate check value iteration history trace: 6.353834E-002,6.353834E-002,6.353834E-002,6.353834E-002,6.353834E-002,6.353834E-002,6.353834E-002,6.353834E-002,6.353834E-002,6.353834E-002,
   **   ~~~   ** Supply-to-demand interface deck 1 mass flow rate check value iteration history trace: 6.353834E-002,6.353834E-002,6.353834E-002,6.353834E-002,6.353834E-002,6.353834E-002,6.353834E-002,6.353834E-002,6.353834E-002,6.353834E-002,
   **   ~~~   ** Air System Named = CENTRAL SYSTEM did not converge for energy
   **   ~~~   ** Check values should be zero. Most Recent values listed first.
   **   ~~~   ** Demand-to-Supply interface energy check value iteration history trace: 1258.660059,1258.660059,1258.660059,1258.660059,1258.660059,1258.660059,1258.660059,1258.660059,1258.660059,1258.660059,
   **   ~~~   ** Supply-to-demand interface deck 1 energy check value iteration history trace: 2313.101168,2313.101168,2313.101168,2313.101168,2313.101168,2313.101168,2313.101168,2313.101168,2313.101168,2313.101168,
   ** Warning ** SimHVAC: Maximum iterations (20) exceeded for all HVAC loops, at ANNUAL, 01/26 08:53 - 09:00
   **   ~~~   ** The solution for one or more of the Air Loop HVAC systems did not appear to converge
   **   ~~~   ** Air System Named = CENTRAL SYSTEM did not converge for mass flow rate
   **   ~~~   ** Check values should be zero. Most Recent values listed first.
   **   ~~~   ** Demand-to-Supply interface mass flow rate check value iteration history trace: 5.330397E-002,5.330397E-002,5.330397E-002,5.330397E-002,5.330397E-002,5.330397E-002,5.330397E-002,5.330397E-002,5.330397E-002,5.330397E-002,
   **   ~~~   ** Supply-to-demand interface deck 1 mass flow rate check value iteration history trace: 5.330397E-002,5.330397E-002,5.330397E-002,5.330397E-002,5.330397E-002,5.330397E-002,5.330397E-002,5.330397E-002,5.330397E-002,5.330397E-002,
   **   ~~~   ** Air System Named = CENTRAL SYSTEM did not converge for energy
   **   ~~~   ** Check values should be zero. Most Recent values listed first.
   **   ~~~   ** Demand-to-Supply interface energy check value iteration history trace: 1050.249351,1050.249351,1050.249351,1050.249351,1050.249351,1050.249351,1050.249351,1050.249351,1050.249351,1050.249351,
   **   ~~~   ** Supply-to-demand interface deck 1 energy check value iteration history trace: 1979.496132,1979.496132,1979.496132,1979.496132,1979.496132,1979.496132,1979.496132,1979.496132,1979.496132,1979.496132,
   ** Warning ** SimHVAC: Maximum iterations (20) exceeded for all HVAC loops, at ANNUAL, 01/29 19:45 - 20:00
   **   ~~~   ** The solution for one or more of the Air Loop HVAC systems did not appear to converge
   **   ~~~   ** Air System Named = CENTRAL SYSTEM did not converge for mass flow rate
   **   ~~~   ** Check values should be zero. Most Recent values listed first.
   **   ~~~   ** Demand-to-Supply interface mass flow rate check value iteration history trace: 6.039033E-002,6.039033E-002,6.039033E-002,6.039033E-002,6.039033E-002,6.039033E-002,6.039033E-002,6.039033E-002,6.039033E-002,6.039033E-002,
   **   ~~~   ** Supply-to-demand interface deck 1 mass flow rate check value iteration history trace: 6.039033E-002,6.039033E-002,6.039033E-002,6.039033E-002,6.039033E-002,6.039033E-002,6.039033E-002,6.039033E-002,6.039033E-002,6.039033E-002,
   **   ~~~   ** Air System Named = CENTRAL SYSTEM did not converge for energy
   **   ~~~   ** Check values should be zero. Most Recent values listed first.
   **   ~~~   ** Demand-to-Supply interface energy check value iteration history trace: 1182.669873,1182.669873,1182.669873,1182.669873,1182.669873,1182.669873,1182.669873,1182.669873,1182.669873,1182.669873,
   **   ~~~   ** Supply-to-demand interface deck 1 energy check value iteration history trace: 2016.516288,2016.516288,2016.516288,2016.516288,2016.516287,2016.516287,2016.516287,2016.516287,2016.516287,2016.516287,
   ** Warning ** SimHVAC: Maximum iterations (20) exceeded for all HVAC loops, at ANNUAL, 01/30 09:23 - 09:26
   **   ~~~   ** The solution for one or more of the Air Loop HVAC systems did not appear to converge
   **   ~~~   ** Air System Named = CENTRAL SYSTEM did not converge for mass flow rate
   **   ~~~   ** Check values should be zero. Most Recent values listed first.
   **   ~~~   ** Demand-to-Supply interface mass flow rate check value iteration history trace: 5.893429E-002,5.893429E-002,5.893429E-002,5.893429E-002,5.893429E-002,5.893429E-002,5.893429E-002,5.893429E-002,5.893429E-002,5.893429E-002,
   **   ~~~   ** Supply-to-demand interface deck 1 mass flow rate check value iteration history trace: 5.893429E-002,5.893429E-002,5.893429E-002,5.893429E-002,5.893429E-002,5.893429E-002,5.893429E-002,5.893429E-002,5.893429E-002,5.893429E-002,
   **   ~~~   ** Air System Named = CENTRAL SYSTEM did not converge for energy
   **   ~~~   ** Check values should be zero. Most Recent values listed first.
   **   ~~~   ** Demand-to-Supply interface energy check value iteration history trace: 1165.816702,1165.816702,1165.816702,1165.816702,1165.816702,1165.816702,1165.816702,1165.816701,1165.816701,1165.816701,
   **   ~~~   ** Supply-to-demand interface deck 1 energy check value iteration history trace: 2029.730995,2029.730995,2029.730995,2029.730995,2029.730995,2029.730995,2029.730995,2029.730995,2029.730995,2029.730995,
   ** Warning ** SimHVAC: Maximum iterations (20) exceeded for all HVAC loops, at ANNUAL, 02/14 17:15 - 17:30
   **   ~~~   ** The solution for one or more of the Air Loop HVAC systems did not appear to converge
   **   ~~~   ** Air System Named = CENTRAL SYSTEM did not converge for mass flow rate
   **   ~~~   ** Check values should be zero. Most Recent values listed first.
   **   ~~~   ** Demand-to-Supply interface mass flow rate check value iteration history trace: 4.373008E-002,4.373008E-002,4.373008E-002,4.373008E-002,4.373008E-002,4.373008E-002,4.373008E-002,4.373008E-002,4.373008E-002,4.373008E-002,
   **   ~~~   ** Supply-to-demand interface deck 1 mass flow rate check value iteration history trace: 4.373008E-002,4.373008E-002,4.373008E-002,4.373008E-002,4.373008E-002,4.373008E-002,4.373008E-002,4.373008E-002,4.373008E-002,4.373008E-002,
   **   ~~~   ** Air System Named = CENTRAL SYSTEM did not converge for energy
   **   ~~~   ** Check values should be zero. Most Recent values listed first.
   **   ~~~   ** Demand-to-Supply interface energy check value iteration history trace: 866.962120,866.962120,866.962120,866.962120,866.962120,866.962120,866.962120,866.962120,866.962120,866.962120,
   **   ~~~   ** Supply-to-demand interface deck 1 energy check value iteration history trace: 1513.750653,1513.750653,1513.750653,1513.750653,1513.750653,1513.750653,1513.750653,1513.750653,1513.750653,1513.750653,
   ** Warning ** SimHVAC: Maximum iterations (20) exceeded for all HVAC loops, at ANNUAL, 02/20 09:30 - 09:32
   **   ~~~   ** The solution for one or more of the Air Loop HVAC systems did not appear to converge
   **   ~~~   ** Air System Named = CENTRAL SYSTEM did not converge for mass flow rate
   **   ~~~   ** Check values should be zero. Most Recent values listed first.
   **   ~~~   ** Demand-to-Supply interface mass flow rate check value iteration history trace: 5.821213E-002,5.821213E-002,5.821213E-002,5.821213E-002,5.821213E-002,5.821213E-002,5.821213E-002,5.821213E-002,5.821213E-002,5.821213E-002,
   **   ~~~   ** Supply-to-demand interface deck 1 mass flow rate check value iteration history trace: 5.821213E-002,5.821213E-002,5.821213E-002,5.821213E-002,5.821213E-002,5.821213E-002,5.821213E-002,5.821213E-002,5.821213E-002,5.821213E-002,
   **   ~~~   ** Air System Named = CENTRAL SYSTEM did not converge for energy
   **   ~~~   ** Check values should be zero. Most Recent values listed first.
   **   ~~~   ** Demand-to-Supply interface energy check value iteration history trace: 1153.484836,1153.484836,1153.484836,1153.484836,1153.484836,1153.484836,1153.484836,1153.484836,1153.484836,1153.484836,
   **   ~~~   ** Supply-to-demand interface deck 1 energy check value iteration history trace: 1991.481375,1991.481375,1991.481375,1991.481375,1991.481375,1991.481375,1991.481375,1991.481375,1991.481375,1991.481375,
   ** Warning ** SimHVAC: Maximum iterations (20) exceeded for all HVAC loops, at ANNUAL, 03/01 13:30 - 13:45
   **   ~~~   ** The solution for one or more of the Air Loop HVAC systems did not appear to converge
   **   ~~~   ** Air System Named = CENTRAL SYSTEM did not converge for mass flow rate
   **   ~~~   ** Check values should be zero. Most Recent values listed first.
   **   ~~~   ** Demand-to-Supply interface mass flow rate check value iteration history trace: 2.649662E-002,2.649662E-002,2.649662E-002,2.649662E-002,2.649662E-002,2.649662E-002,2.649662E-002,2.649662E-002,2.649662E-002,2.649662E-002,
   **   ~~~   ** Supply-to-demand interface deck 1 mass flow rate check value iteration history trace: 2.649662E-002,2.649662E-002,2.649662E-002,2.649662E-002,2.649662E-002,2.649662E-002,2.649662E-002,2.649662E-002,2.649662E-002,2.649662E-002,
   **   ~~~   ** Air System Named = CENTRAL SYSTEM did not converge for energy
   **   ~~~   ** Check values should be zero. Most Recent values listed first.
   **   ~~~   ** Demand-to-Supply interface energy check value iteration history trace: 524.463589,524.463589,524.463589,524.463589,524.463589,524.463589,524.463589,524.463589,524.463589,524.463589,
   **   ~~~   ** Supply-to-demand interface deck 1 energy check value iteration history trace: 925.921130,925.921130,925.921130,925.921130,925.921130,925.921130,925.921130,925.921130,925.921130,925.921130,
   ** Warning ** SimHVAC: Maximum iterations (20) exceeded for all HVAC loops, at ANNUAL, 03/08 12:45 - 12:47
   **   ~~~   ** The solution for one or more of the Air Loop HVAC systems did not appear to converge
   **   ~~~   ** Air System Named = CENTRAL SYSTEM did not converge for mass flow rate
   **   ~~~   ** Check values should be zero. Most Recent values listed first.
   **   ~~~   ** Demand-to-Supply interface mass flow rate check value iteration history trace: 6.840544E-002,6.840544E-002,6.840544E-002,6.840544E-002,6.840544E-002,6.840544E-002,6.840544E-002,6.840544E-002,6.840544E-002,6.840544E-002,
   **   ~~~   ** Supply-to-demand interface deck 1 mass flow rate check value iteration history trace: 6.840544E-002,6.840544E-002,6.840544E-002,6.840544E-002,6.840544E-002,6.840544E-002,6.840544E-002,6.840544E-002,6.840544E-002,6.840544E-002,
   **   ~~~   ** Air System Named = CENTRAL SYSTEM did not converge for energy
   **   ~~~   ** Check values should be zero. Most Recent values listed first.
   **   ~~~   ** Demand-to-Supply interface energy check value iteration history trace: 1355.000153,1355.000153,1355.000153,1355.000153,1355.000153,1355.000153,1355.000153,1355.000153,1355.000153,1355.000152,
   **   ~~~   ** Supply-to-demand interface deck 1 energy check value iteration history trace: 2286.705082,2286.705082,2286.705082,2286.705082,2286.705081,2286.705081,2286.705081,2286.705081,2286.705081,2286.705081,
   ** Warning ** SimHVAC: Maximum iterations (20) exceeded for all HVAC loops, at ANNUAL, 03/24 17:00 - 17:15
   **   ~~~   ** The solution for one or more of the Air Loop HVAC systems did not appear to converge
   **   ~~~   ** Air System Named = CENTRAL SYSTEM did not converge for mass flow rate
   **   ~~~   ** Check values should be zero. Most Recent values listed first.
   **   ~~~   ** Demand-to-Supply interface mass flow rate check value iteration history trace: 5.571503E-002,5.571503E-002,5.571503E-002,5.571503E-002,5.571503E-002,5.571503E-002,5.571503E-002,5.571503E-002,5.571503E-002,5.571503E-002,
   **   ~~~   ** Supply-to-demand interface deck 1 mass flow rate check value iteration history trace: 5.571503E-002,5.571503E-002,5.571503E-002,5.571503E-002,5.571503E-002,5.571503E-002,5.571503E-002,5.571503E-002,5.571503E-002,5.571503E-002,
   **   ~~~   ** Air System Named = CENTRAL SYSTEM did not converge for energy
   **   ~~~   ** Check values should be zero. Most Recent values listed first.
   **   ~~~   ** Demand-to-Supply interface energy check value iteration history trace: 1090.764766,1090.764766,1090.764766,1090.764766,1090.764766,1090.764766,1090.764766,1090.764766,1090.764766,1090.764766,
   **   ~~~   ** Supply-to-demand interface deck 1 energy check value iteration history trace: 1915.769052,1915.769052,1915.769052,1915.769052,1915.769052,1915.769052,1915.769052,1915.769052,1915.769052,1915.769052,
   ** Warning ** SimHVAC: Maximum iterations (20) exceeded for all HVAC loops, at ANNUAL, 04/17 06:45 - 07:00
   **   ~~~   ** The solution for one or more of the Air Loop HVAC systems did not appear to converge
   **   ~~~   ** Air System Named = CENTRAL SYSTEM did not converge for mass flow rate
   **   ~~~   ** Check values should be zero. Most Recent values listed first.
   **   ~~~   ** Demand-to-Supply interface mass flow rate check value iteration history trace: 6.779434E-002,6.779434E-002,6.779434E-002,6.779434E-002,6.779434E-002,6.779434E-002,6.779434E-002,6.779434E-002,6.779434E-002,6.779434E-002,
   **   ~~~   ** Supply-to-demand interface deck 1 mass flow rate check value iteration history trace: 6.779434E-002,6.779434E-002,6.779434E-002,6.779434E-002,6.779434E-002,6.779434E-002,6.779434E-002,6.779434E-002,6.779434E-002,6.779434E-002,
   **   ~~~   ** Air System Named = CENTRAL SYSTEM did not converge for energy
   **   ~~~   ** Check values should be zero. Most Recent values listed first.
   **   ~~~   ** Demand-to-Supply interface energy check value iteration history trace: 1343.201729,1343.201729,1343.201729,1343.201729,1343.201729,1343.201729,1343.201729,1343.201729,1343.201729,1343.201729,
   **   ~~~   ** Supply-to-demand interface deck 1 energy check value iteration history trace: 2314.926696,2314.926696,2314.926696,2314.926696,2314.926696,2314.926696,2314.926696,2314.926696,2314.926696,2314.926696,
   ** Warning ** SimHVAC: Maximum iterations (20) exceeded for all HVAC loops, at ANNUAL, 04/25 03:30 - 03:45
   **   ~~~   ** The solution for one or more of the Air Loop HVAC systems did not appear to converge
   **   ~~~   ** Air System Named = CENTRAL SYSTEM did not converge for mass flow rate
   **   ~~~   ** Check values should be zero. Most Recent values listed first.
   **   ~~~   ** Demand-to-Supply interface mass flow rate check value iteration history trace: 4.677121E-002,4.677121E-002,4.677121E-002,4.677121E-002,4.677121E-002,4.677121E-002,4.677121E-002,4.677121E-002,4.677121E-002,4.677121E-002,
   **   ~~~   ** Supply-to-demand interface deck 1 mass flow rate check value iteration history trace: 4.677121E-002,4.677121E-002,4.677121E-002,4.677121E-002,4.677121E-002,4.677121E-002,4.677121E-002,4.677121E-002,4.677121E-002,4.677121E-002,
   **   ~~~   ** Air System Named = CENTRAL SYSTEM did not converge for energy
   **   ~~~   ** Check values should be zero. Most Recent values listed first.
   **   ~~~   ** Demand-to-Supply interface energy check value iteration history trace: 873.851282,873.851281,873.851281,873.851281,873.851281,873.851281,873.851281,873.851281,873.851281,873.851281,
   **   ~~~   ** Supply-to-demand interface deck 1 energy check value iteration history trace: 1514.871977,1514.871977,1514.871977,1514.871977,1514.871977,1514.871977,1514.871977,1514.871977,1514.871977,1514.871977,
   ************* Simulation Error Summary *************
   ** Warning ** The following Report Variables were requested but not generated -- check.rdd file
   **   ~~~   ** Either the IDF did not contain these elements, the variable name is misspelled,
   **   ~~~   ** or the requested variable is an advanced output which requires Output : Diagnostics, DisplayAdvancedReportVariables;
   ************* Key=*, VarName=BASEBOARD TOTAL HEATING ENERGY, Frequency=
   ************* Key=*, VarName=WATER HEATER NATURALGAS ENERGY, Frequency=
   ************* Key=*, VarName=COOLING COIL TOTAL HEATING ENERGY, Frequency=
   ************* There are 34 unused schedules in input.
   ************* There are 388 unused week schedules in input.
   ************* There are 396 unused day schedules in input.
   ************* Use Output:Diagnostics,DisplayUnusedSchedules; to see them.
   *************
   ************* ===== Recurring Error Summary =====
   ************* The following recurring error messages occurred.
   *************
   *************  ** Warning ** "TOTAL HOT WATER LOAD" - Target water temperature should be less than or equal to the hot water temperature error continues...
   *************  **   ~~~   **   This error occurred 55567 total times;
   *************  **   ~~~   **   during Warmup 0 times;
   *************  **   ~~~   **   during Sizing 0 times.
   *************  **   ~~~   **   Max=6.583289  Min=2.302966E-003
   *************
   *************  ** Warning ** SimHVAC: Exceeding Maximum iterations for all HVAC loops, during ANNUAL continues
   *************  **   ~~~   **   This error occurred 15 total times;
   *************  **   ~~~   **   during Warmup 0 times;
   *************  **   ~~~   **   during Sizing 0 times.
   *************
   *************
   ************* ===== Final Error Summary =====
   ************* The following error categories occurred.  Consider correcting or noting.
   ************* Nominally Unused Constructions
   ************* ..The nominally unused constructions warning is provided to alert you to potential conditions that can cause
   ************* ..extra time during simulation. Each construction is calculated by the algorithm indicated in the HeatBalanceAlgorithm
   ************* ..object. You may remove the constructions indicated (when you use the DisplayExtraWarnings option).
   *************
   ************* EnergyPlus Warmup Error Summary. During Warmup: 1 Warning; 0 Severe Errors.
   ************* EnergyPlus Sizing Error Summary. During Sizing: 4 Warning; 0 Severe Errors.
   ************* EnergyPlus Completed Successfully-- 55614 Warning; 0 Severe Errors; Elapsed Time=00hr 01min  7.97sec
