Program Version,EnergyPlus, Version 22.2.0-c249759bad, YMD=2023.09.01 19:14,
   ************* Beginning Zone Sizing Calculations
   ** Warning ** ProcessScheduleInput: Schedule:Constant="ALWAYS ON DISCRETE", Schedule Type Limits Name="ONOFF" not found -- will not be validated
   ** Warning ** Foundation:Kiva="KIVA FOUNDATION", no Interior Horizontal Insulation Material Name defined
   **   ~~~   ** Interior Horizontal Insulation Depth will not be used.
   ** Warning ** CheckUsedConstructions: There are 15 nominally unused constructions in input.
   **   ~~~   ** Each Unused construction is shown.
   ************* Construction=INTERIOR FLOOR
   ************* Construction=INTERIOR WINDOW
   ************* Construction=EXTERIOR DOOR
   ************* Construction=INTERIOR DOOR
   ************* Construction=GABLE CONSTRUCTION
   ************* Construction=CRAWL_FLOOR
   ************* Construction=INSULATED PIPE
   ************* Construction=PLAIN PIPE
   ************* Construction=TDD PIPE
   ************* Construction=TDD DOME
   ************* Construction=TDD DIFFUSER
   ************* Construction=CRAWL WALL
   ************* Construction=CEILING-FLOOR-LAYER
   ************* Construction=SLAB CONSTRUCTION W FULL R10 INSULATION
   ************* Construction=SLAB CONSTRUCTION W FULL R5 INSULATION
   ** Warning ** GetDXCoils: Coil:Heating:DX:SingleSpeed="DX_HEATING_COIL" curve values
   **   ~~~   ** ... Defrost Energy Input Ratio Function of Temperature Curve Name = DEFROSTEIR output is not equal to 1.0 (+ or - 10%) at rated conditions.
   **   ~~~   ** ... Curve output at rated conditions = 0.152
   ************* Beginning System Sizing Calculations
   ************* Beginning Plant Sizing Calculations
   ** Warning ** SizeDXCoil Coil:Cooling:DX:SingleSpeed DX_COOLING_COIL
   **   ~~~   ** ...Gross Rated Total Cooling Capacity [W] will be limited by the maximum rated volume flow per rated total capacity ratio.
   **   ~~~   ** ...DX coil volume flow rate ( m3/s ) = 0.463011
   **   ~~~   ** ...Requested capacity ( W ) = 6285.180
   **   ~~~   ** ...Requested flow/capacity ratio ( m3/s/W ) = 7.366E-005
   **   ~~~   ** ...Maximum flow/capacity ratio ( m3/s/W ) = 6.041E-005
   **   ~~~   ** ...Adjusted capacity ( W ) = 7664.477
   ** Warning ** Coil:WaterHeating:AirToWaterHeatPump:Wrapped "HEAT PUMP WATER HEATER EVAPORATOR": Rated air volume flow rate per watt of rated total water heating capacity is out of range
   **   ~~~   ** Min Rated Vol Flow Per Watt=[4.027E-005], Rated Vol Flow Per Watt=[1.510E-004], Max Rated Vol Flow Per Watt=[8.056E-005]. See Input-Output Reference Manual for valid range.
   ************* SizeFan: : Potential issue with equipment sizing for Fan:OnOff HEAT PUMP WATER HEATER FAN
   **   ~~~   ** User-Specified Maximum Flow Rate [m3/s] = 0.22653
   **   ~~~   ** differs from Design Size Maximum Flow Rate [m3/s] = 7.55250E-002
   **   ~~~   ** This may, or may not, indicate mismatched component sizes.
   **   ~~~   ** Verify that the value entered is intended and is consistent with other components.
   ** Warning ** Water heater = WATER HEATER TANK:  Recovery Efficiency and Energy Factor could not be calculated during the test for standard ratings
   **   ~~~   ** Setpoint was never recovered and/or heater never turned on
   ** Warning ** Check input. Pump nominal power or motor efficiency is set to 0, for pump=MAINS PRESSURE
   ** Warning ** Output:Meter: invalid Key Name="ELECTRIC_RANGE:INTERIOREQUIPMENT:ELECTRICITY" - not found.
   ** Warning ** Output:Meter: invalid Key Name="ELECTRIC_DRYER:INTERIOREQUIPMENT:ELECTRICITY" - not found.
   ** Warning ** Output:Meter: invalid Key Name="HEATRECOVERY:ELECTRICITY" - not found.
   ** Warning ** Output:Meter: invalid Key Name="HEATING:NATURALGAS" - not found.
   ** Warning ** Output:Meter: invalid Key Name="WATERSYSTEMS:NATURALGAS" - not found.
   ** Warning ** Output:Meter: invalid Key Name="PROPANE:FACILITY" - not found.
   ** Warning ** Output:Meter: invalid Key Name="HEATING:PROPANE" - not found.
   ************* Testing Individual Branch Integrity
   ************* All Branches passed integrity testing
   ************* Testing Individual Supply Air Path Integrity
   ************* All Supply Air Paths passed integrity testing
   ************* Testing Individual Return Air Path Integrity
   ************* All Return Air Paths passed integrity testing
   ************* No node connection errors were found.
   ************* Beginning Simulation
   ** Warning ** AirflowNetwork::Solver::validate_distribution: Heat pump water heater is simulated along with an AirflowNetwork but is not included in the AirflowNetwork.
   ** Warning ** CalcEquipmentFlowRates: "TOTAL HOT WATER LOAD" - Target water temperature is greater than the hot water temperature by (0.93 C)
   **   ~~~   **  Environment=EXTREME_WINTER, at Simulation time=03/05 06:45 - 07:00
   **   ~~~   ** ...target water temperature     = 53.33 C
   **   ~~~   ** ...hot water temperature        = 52.40 C
   **   ~~~   ** ...Target water temperature should be less than or equal to the hot water temperature. Verify temperature setpoints and schedules.
   ** Warning ** Temperature out of range [-100. to 200.] (PsyPsatFnTemp)
   **   ~~~   **  Routine=PsyTwbFnTdbWPb, Environment=ANNUAL, at Simulation time=01/27 22:15 - 22:30
   **   ~~~   **  Input Temperature=-1100.64
   ** Warning ** SimHVAC: Maximum iterations (20) exceeded for all HVAC loops, at ANNUAL, 02/04 19:53 - 20:00
   **   ~~~   ** The solution for one or more of the Air Loop HVAC systems did not appear to converge
   **   ~~~   ** Air System Named = CENTRAL SYSTEM did not converge for mass flow rate
   **   ~~~   ** Check values should be zero. Most Recent values listed first.
   **   ~~~   ** Demand-to-Supply interface mass flow rate check value iteration history trace: 7.846671E-002,7.846671E-002,7.846671E-002,7.846671E-002,7.846671E-002,7.846671E-002,7.846671E-002,7.846671E-002,7.846671E-002,7.846671E-002,
   **   ~~~   ** Supply-to-demand interface deck 1 mass flow rate check value iteration history trace: 7.846671E-002,7.846671E-002,7.846671E-002,7.846671E-002,7.846671E-002,7.846671E-002,7.846671E-002,7.846671E-002,7.846671E-002,7.846671E-002,
   **   ~~~   ** Air System Named = CENTRAL SYSTEM did not converge for energy
   **   ~~~   ** Check values should be zero. Most Recent values listed first.
   **   ~~~   ** Demand-to-Supply interface energy check value iteration history trace: 1546.151068,1546.151068,1546.151068,1546.151068,1546.151068,1546.151068,1546.151067,1546.151067,1546.151067,1546.151067,
   **   ~~~   ** Supply-to-demand interface deck 1 energy check value iteration history trace: 2459.366503,2459.366502,2459.366502,2459.366502,2459.366502,2459.366502,2459.366502,2459.366502,2459.366501,2459.366501,
   ** Warning ** SimHVAC: Maximum iterations (20) exceeded for all HVAC loops, at ANNUAL, 02/20 22:00 - 22:15
   **   ~~~   ** The solution for one or more of the Air Loop HVAC systems did not appear to converge
   **   ~~~   ** Air System Named = CENTRAL SYSTEM did not converge for mass flow rate
   **   ~~~   ** Check values should be zero. Most Recent values listed first.
   **   ~~~   ** Demand-to-Supply interface mass flow rate check value iteration history trace: 7.668046E-002,7.668046E-002,7.668046E-002,7.668046E-002,7.668046E-002,7.668046E-002,7.668046E-002,7.668046E-002,7.668046E-002,7.668046E-002,
   **   ~~~   ** Supply-to-demand interface deck 1 mass flow rate check value iteration history trace: 7.668046E-002,7.668046E-002,7.668046E-002,7.668046E-002,7.668046E-002,7.668046E-002,7.668046E-002,7.668046E-002,7.668046E-002,7.668046E-002,
   **   ~~~   ** Air System Named = CENTRAL SYSTEM did not converge for energy
   **   ~~~   ** Check values should be zero. Most Recent values listed first.
   **   ~~~   ** Demand-to-Supply interface energy check value iteration history trace: 1519.387418,1519.387418,1519.387418,1519.387418,1519.387418,1519.387417,1519.387417,1519.387417,1519.387417,1519.387417,
   **   ~~~   ** Supply-to-demand interface deck 1 energy check value iteration history trace: 2352.729185,2352.729185,2352.729184,2352.729184,2352.729184,2352.729184,2352.729184,2352.729184,2352.729184,2352.729183,
   ** Warning ** SimHVAC: Maximum iterations (20) exceeded for all HVAC loops, at ANNUAL, 02/27 14:53 - 15:00
   **   ~~~   ** The solution for one or more of the Air Loop HVAC systems did not appear to converge
   **   ~~~   ** Air System Named = CENTRAL SYSTEM did not converge for mass flow rate
   **   ~~~   ** Check values should be zero. Most Recent values listed first.
   **   ~~~   ** Demand-to-Supply interface mass flow rate check value iteration history trace: 5.796212E-002,5.796212E-002,5.796212E-002,5.796212E-002,5.796212E-002,5.796212E-002,5.796212E-002,5.796212E-002,5.796212E-002,5.796212E-002,
   **   ~~~   ** Supply-to-demand interface deck 1 mass flow rate check value iteration history trace: 5.796212E-002,5.796212E-002,5.796212E-002,5.796212E-002,5.796212E-002,5.796212E-002,5.796212E-002,5.796212E-002,5.796212E-002,5.796212E-002,
   **   ~~~   ** Air System Named = CENTRAL SYSTEM did not converge for energy
   **   ~~~   ** Check values should be zero. Most Recent values listed first.
   **   ~~~   ** Demand-to-Supply interface energy check value iteration history trace: 1141.714387,1141.714387,1141.714387,1141.714387,1141.714387,1141.714387,1141.714387,1141.714386,1141.714386,1141.714386,
   **   ~~~   ** Supply-to-demand interface deck 1 energy check value iteration history trace: 1813.138148,1813.138148,1813.138148,1813.138148,1813.138148,1813.138148,1813.138148,1813.138148,1813.138148,1813.138148,
   ** Warning ** SimHVAC: Maximum iterations (20) exceeded for all HVAC loops, at ANNUAL, 03/16 09:00 - 09:05
   **   ~~~   ** The solution for one or more of the Air Loop HVAC systems did not appear to converge
   **   ~~~   ** Air System Named = CENTRAL SYSTEM did not converge for mass flow rate
   **   ~~~   ** Check values should be zero. Most Recent values listed first.
   **   ~~~   ** Demand-to-Supply interface mass flow rate check value iteration history trace: 5.058139E-002,5.058139E-002,5.058139E-002,5.058139E-002,5.058139E-002,5.058139E-002,5.058139E-002,5.058139E-002,5.058139E-002,5.058139E-002,
   **   ~~~   ** Supply-to-demand interface deck 1 mass flow rate check value iteration history trace: 5.058139E-002,5.058139E-002,5.058139E-002,5.058139E-002,5.058139E-002,5.058139E-002,5.058139E-002,5.058139E-002,5.058139E-002,5.058139E-002,
   **   ~~~   ** Air System Named = CENTRAL SYSTEM did not converge for energy
   **   ~~~   ** Check values should be zero. Most Recent values listed first.
   **   ~~~   ** Demand-to-Supply interface energy check value iteration history trace: 1002.325986,1002.325986,1002.325986,1002.325986,1002.325986,1002.325986,1002.325985,1002.325985,1002.325985,1002.325985,
   **   ~~~   ** Supply-to-demand interface deck 1 energy check value iteration history trace: 1774.994067,1774.994067,1774.994067,1774.994067,1774.994067,1774.994067,1774.994067,1774.994066,1774.994066,1774.994066,
   ** Warning ** SimHVAC: Maximum iterations (20) exceeded for all HVAC loops, at ANNUAL, 03/16 20:15 - 20:30
   **   ~~~   ** The solution for one or more of the Air Loop HVAC systems did not appear to converge
   **   ~~~   ** Air System Named = CENTRAL SYSTEM did not converge for mass flow rate
   **   ~~~   ** Check values should be zero. Most Recent values listed first.
   **   ~~~   ** Demand-to-Supply interface mass flow rate check value iteration history trace: 8.551644E-002,8.551644E-002,8.551644E-002,8.551644E-002,8.551644E-002,8.551644E-002,8.551644E-002,8.551644E-002,8.551644E-002,8.551644E-002,
   **   ~~~   ** Supply-to-demand interface deck 1 mass flow rate check value iteration history trace: 8.551644E-002,8.551644E-002,8.551644E-002,8.551644E-002,8.551644E-002,8.551644E-002,8.551644E-002,8.551644E-002,8.551644E-002,8.551644E-002,
   **   ~~~   ** Air System Named = CENTRAL SYSTEM did not converge for energy
   **   ~~~   ** Check values should be zero. Most Recent values listed first.
   **   ~~~   ** Demand-to-Supply interface energy check value iteration history trace: 1691.236039,1691.236038,1691.236038,1691.236038,1691.236038,1691.236038,1691.236038,1691.236038,1691.236038,1691.236037,
   **   ~~~   ** Supply-to-demand interface deck 1 energy check value iteration history trace: 2567.738647,2567.738647,2567.738647,2567.738647,2567.738646,2567.738646,2567.738646,2567.738646,2567.738646,2567.738646,
   ** Warning ** SimHVAC: Maximum iterations (20) exceeded for all HVAC loops, at ANNUAL, 04/03 10:06 - 10:09
   **   ~~~   ** The solution for one or more of the Air Loop HVAC systems did not appear to converge
   **   ~~~   ** Air System Named = CENTRAL SYSTEM did not converge for mass flow rate
   **   ~~~   ** Check values should be zero. Most Recent values listed first.
   **   ~~~   ** Demand-to-Supply interface mass flow rate check value iteration history trace: 7.226086E-002,7.226086E-002,7.226086E-002,7.226086E-002,7.226086E-002,7.226086E-002,7.226086E-002,7.226086E-002,7.226086E-002,7.226086E-002,
   **   ~~~   ** Supply-to-demand interface deck 1 mass flow rate check value iteration history trace: 7.226086E-002,7.226086E-002,7.226086E-002,7.226086E-002,7.226086E-002,7.226086E-002,7.226086E-002,7.226086E-002,7.226086E-002,7.226086E-002,
   **   ~~~   ** Air System Named = CENTRAL SYSTEM did not converge for energy
   **   ~~~   ** Check values should be zero. Most Recent values listed first.
   **   ~~~   ** Demand-to-Supply interface energy check value iteration history trace: 1432.020588,1432.020588,1432.020588,1432.020588,1432.020588,1432.020587,1432.020587,1432.020587,1432.020587,1432.020587,
   **   ~~~   ** Supply-to-demand interface deck 1 energy check value iteration history trace: 2267.154092,2267.154092,2267.154092,2267.154092,2267.154092,2267.154092,2267.154091,2267.154091,2267.154091,2267.154091,
   ** Warning ** SimHVAC: Maximum iterations (20) exceeded for all HVAC loops, at ANNUAL, 04/10 09:15 - 09:30
   **   ~~~   ** The solution for one or more of the Air Loop HVAC systems did not appear to converge
   **   ~~~   ** Air System Named = CENTRAL SYSTEM did not converge for mass flow rate
   **   ~~~   ** Check values should be zero. Most Recent values listed first.
   **   ~~~   ** Demand-to-Supply interface mass flow rate check value iteration history trace: 6.113758E-002,6.113758E-002,6.113758E-002,6.113758E-002,6.113758E-002,6.113758E-002,6.113758E-002,6.113758E-002,6.113758E-002,6.113758E-002,
   **   ~~~   ** Supply-to-demand interface deck 1 mass flow rate check value iteration history trace: 6.113758E-002,6.113758E-002,6.113758E-002,6.113758E-002,6.113758E-002,6.113758E-002,6.113758E-002,6.113758E-002,6.113758E-002,6.113758E-002,
   **   ~~~   ** Air System Named = CENTRAL SYSTEM did not converge for energy
   **   ~~~   ** Check values should be zero. Most Recent values listed first.
   **   ~~~   ** Demand-to-Supply interface energy check value iteration history trace: 1211.528338,1211.528337,1211.528337,1211.528337,1211.528337,1211.528337,1211.528337,1211.528337,1211.528337,1211.528337,
   **   ~~~   ** Supply-to-demand interface deck 1 energy check value iteration history trace: 2153.424307,2153.424307,2153.424306,2153.424306,2153.424306,2153.424306,2153.424306,2153.424306,2153.424306,2153.424306,
   ** Warning ** SimHVAC: Maximum iterations (20) exceeded for all HVAC loops, at ANNUAL, 04/15 10:30 - 10:38
   **   ~~~   ** The solution for one or more of the Air Loop HVAC systems did not appear to converge
   **   ~~~   ** Air System Named = CENTRAL SYSTEM did not converge for mass flow rate
   **   ~~~   ** Check values should be zero. Most Recent values listed first.
   **   ~~~   ** Demand-to-Supply interface mass flow rate check value iteration history trace: 5.792111E-002,5.792111E-002,5.792111E-002,5.792111E-002,5.792111E-002,5.792111E-002,5.792111E-002,5.792111E-002,5.792111E-002,5.792111E-002,
   **   ~~~   ** Supply-to-demand interface deck 1 mass flow rate check value iteration history trace: 5.792111E-002,5.792111E-002,5.792111E-002,5.792111E-002,5.792111E-002,5.792111E-002,5.792111E-002,5.792111E-002,5.792111E-002,5.792111E-002,
   **   ~~~   ** Air System Named = CENTRAL SYSTEM did not converge for energy
   **   ~~~   ** Check values should be zero. Most Recent values listed first.
   **   ~~~   ** Demand-to-Supply interface energy check value iteration history trace: 1147.762929,1147.762929,1147.762929,1147.762929,1147.762929,1147.762929,1147.762929,1147.762929,1147.762929,1147.762929,
   **   ~~~   ** Supply-to-demand interface deck 1 energy check value iteration history trace: 2179.704603,2179.704603,2179.704603,2179.704603,2179.704603,2179.704603,2179.704603,2179.704603,2179.704603,2179.704603,
   ** Warning ** SimHVAC: Maximum iterations (20) exceeded for all HVAC loops, at ANNUAL, 04/15 14:30 - 14:38
   **   ~~~   ** The solution for one or more of the Air Loop HVAC systems did not appear to converge
   **   ~~~   ** Air System Named = CENTRAL SYSTEM did not converge for mass flow rate
   **   ~~~   ** Check values should be zero. Most Recent values listed first.
   **   ~~~   ** Demand-to-Supply interface mass flow rate check value iteration history trace: 4.027312E-002,4.027312E-002,4.027312E-002,4.027312E-002,4.027312E-002,4.027312E-002,4.027312E-002,4.027312E-002,4.027312E-002,4.027312E-002,
   **   ~~~   ** Supply-to-demand interface deck 1 mass flow rate check value iteration history trace: 4.027312E-002,4.027312E-002,4.027312E-002,4.027312E-002,4.027312E-002,4.027312E-002,4.027312E-002,4.027312E-002,4.027312E-002,4.027312E-002,
   **   ~~~   ** Air System Named = CENTRAL SYSTEM did not converge for energy
   **   ~~~   ** Check values should be zero. Most Recent values listed first.
   **   ~~~   ** Demand-to-Supply interface energy check value iteration history trace: 797.406309,797.406309,797.406309,797.406309,797.406309,797.406309,797.406309,797.406309,797.406309,797.406309,
   **   ~~~   ** Supply-to-demand interface deck 1 energy check value iteration history trace: 1502.464896,1502.464896,1502.464896,1502.464896,1502.464896,1502.464896,1502.464896,1502.464895,1502.464895,1502.464895,
   ** Warning ** SimHVAC: Maximum iterations (20) exceeded for all HVAC loops, at ANNUAL, 04/30 07:45 - 08:00
   **   ~~~   ** The solution for one or more of the Air Loop HVAC systems did not appear to converge
   **   ~~~   ** Air System Named = CENTRAL SYSTEM did not converge for mass flow rate
   **   ~~~   ** Check values should be zero. Most Recent values listed first.
   **   ~~~   ** Demand-to-Supply interface mass flow rate check value iteration history trace: 4.617218E-002,4.617218E-002,4.617218E-002,4.617218E-002,4.617218E-002,4.617218E-002,4.617218E-002,4.617218E-002,4.617218E-002,4.617218E-002,
   **   ~~~   ** Supply-to-demand interface deck 1 mass flow rate check value iteration history trace: 4.617218E-002,4.617218E-002,4.617218E-002,4.617218E-002,4.617218E-002,4.617218E-002,4.617218E-002,4.617218E-002,4.617218E-002,4.617218E-002,
   **   ~~~   ** Air System Named = CENTRAL SYSTEM did not converge for energy
   **   ~~~   ** Check values should be zero. Most Recent values listed first.
   **   ~~~   ** Demand-to-Supply interface energy check value iteration history trace: 914.961548,914.961548,914.961548,914.961548,914.961548,914.961548,914.961548,914.961548,914.961548,914.961548,
   **   ~~~   ** Supply-to-demand interface deck 1 energy check value iteration history trace: 1682.671723,1682.671723,1682.671723,1682.671723,1682.671723,1682.671723,1682.671723,1682.671722,1682.671722,1682.671722,
   ** Warning ** SimHVAC: Maximum iterations (20) exceeded for all HVAC loops, at ANNUAL, 05/15 05:15 - 05:30
   **   ~~~   ** The solution for one or more of the Air Loop HVAC systems did not appear to converge
   **   ~~~   ** Air System Named = CENTRAL SYSTEM did not converge for mass flow rate
   **   ~~~   ** Check values should be zero. Most Recent values listed first.
   **   ~~~   ** Demand-to-Supply interface mass flow rate check value iteration history trace: 6.370732E-002,6.370732E-002,6.370732E-002,6.370732E-002,6.370732E-002,6.370732E-002,6.370732E-002,6.370732E-002,6.370732E-002,6.370732E-002,
   **   ~~~   ** Supply-to-demand interface deck 1 mass flow rate check value iteration history trace: 6.370732E-002,6.370732E-002,6.370732E-002,6.370732E-002,6.370732E-002,6.370732E-002,6.370732E-002,6.370732E-002,6.370732E-002,6.370732E-002,
   **   ~~~   ** Air System Named = CENTRAL SYSTEM did not converge for energy
   **   ~~~   ** Check values should be zero. Most Recent values listed first.
   **   ~~~   ** Demand-to-Supply interface energy check value iteration history trace: 1262.405320,1262.405320,1262.405320,1262.405320,1262.405320,1262.405320,1262.405320,1262.405320,1262.405320,1262.405320,
   **   ~~~   ** Supply-to-demand interface deck 1 energy check value iteration history trace: 1973.527746,1973.527746,1973.527746,1973.527745,1973.527745,1973.527745,1973.527745,1973.527745,1973.527745,1973.527745,
   ** Warning ** SimHVAC: Maximum iterations (20) exceeded for all HVAC loops, at ANNUAL, 06/20 07:08 - 07:10
   **   ~~~   ** The solution for one or more of the Air Loop HVAC systems did not appear to converge
   **   ~~~   ** Air System Named = CENTRAL SYSTEM did not converge for mass flow rate
   **   ~~~   ** Check values should be zero. Most Recent values listed first.
   **   ~~~   ** Demand-to-Supply interface mass flow rate check value iteration history trace: 0.235627,0.235627,0.235627,0.235627,0.235627,0.235627,0.235627,0.235627,0.235627,0.235627,
   **   ~~~   ** Supply-to-demand interface deck 1 mass flow rate check value iteration history trace: 0.235627,0.235627,0.235627,0.235627,0.235627,0.235627,0.235627,0.235627,0.235627,0.235627,
   **   ~~~   ** Air System Named = CENTRAL SYSTEM did not converge for energy
   **   ~~~   ** Check values should be zero. Most Recent values listed first.
   **   ~~~   ** Demand-to-Supply interface energy check value iteration history trace: 5603.823058,5603.823059,5603.823059,5603.823060,5603.823061,5603.823061,5603.823062,5603.823063,5603.823063,5603.823064,
   **   ~~~   ** Supply-to-demand interface deck 1 energy check value iteration history trace: 2474.735646,2474.735646,2474.735647,2474.735647,2474.735647,2474.735648,2474.735648,2474.735648,2474.735648,2474.735649,
   ** Warning ** SimHVAC: Maximum iterations (20) exceeded for all HVAC loops, at ANNUAL, 09/17 09:12 - 09:15
   **   ~~~   ** The solution for one or more of the Air Loop HVAC systems did not appear to converge
   **   ~~~   ** Air System Named = CENTRAL SYSTEM did not converge for mass flow rate
   **   ~~~   ** Check values should be zero. Most Recent values listed first.
   **   ~~~   ** Demand-to-Supply interface mass flow rate check value iteration history trace: 0.178074,0.178074,0.178074,0.178074,0.178074,0.178074,0.178074,0.178074,0.178074,0.178074,
   **   ~~~   ** Supply-to-demand interface deck 1 mass flow rate check value iteration history trace: 0.178074,0.178074,0.178074,0.178074,0.178074,0.178074,0.178074,0.178074,0.178074,0.178074,
   **   ~~~   ** Air System Named = CENTRAL SYSTEM did not converge for energy
   **   ~~~   ** Check values should be zero. Most Recent values listed first.
   **   ~~~   ** Demand-to-Supply interface energy check value iteration history trace: 4238.625225,4238.625225,4238.625225,4238.625225,4238.625226,4238.625226,4238.625226,4238.625226,4238.625227,4238.625227,
   **   ~~~   ** Supply-to-demand interface deck 1 energy check value iteration history trace: 1822.495882,1822.495882,1822.495882,1822.495882,1822.495882,1822.495882,1822.495882,1822.495882,1822.495882,1822.495883,
   ** Warning ** SimHVAC: Maximum iterations (20) exceeded for all HVAC loops, at ANNUAL, 10/04 11:15 - 11:20
   **   ~~~   ** The solution for one or more of the Air Loop HVAC systems did not appear to converge
   **   ~~~   ** Air System Named = CENTRAL SYSTEM did not converge for mass flow rate
   **   ~~~   ** Check values should be zero. Most Recent values listed first.
   **   ~~~   ** Demand-to-Supply interface mass flow rate check value iteration history trace: 5.055805E-002,5.055805E-002,5.055805E-002,5.055805E-002,5.055805E-002,5.055805E-002,5.055805E-002,5.055805E-002,5.055805E-002,5.055805E-002,
   **   ~~~   ** Supply-to-demand interface deck 1 mass flow rate check value iteration history trace: 5.055805E-002,5.055805E-002,5.055805E-002,5.055805E-002,5.055805E-002,5.055805E-002,5.055805E-002,5.055805E-002,5.055805E-002,5.055805E-002,
   **   ~~~   ** Air System Named = CENTRAL SYSTEM did not converge for energy
   **   ~~~   ** Check values should be zero. Most Recent values listed first.
   **   ~~~   ** Demand-to-Supply interface energy check value iteration history trace: 999.438912,999.438912,999.438912,999.438912,999.438912,999.438911,999.438911,999.438911,999.438911,999.438911,
   **   ~~~   ** Supply-to-demand interface deck 1 energy check value iteration history trace: 1803.543097,1803.543097,1803.543097,1803.543097,1803.543097,1803.543097,1803.543097,1803.543097,1803.543097,1803.543097,
   ************* Simulation Error Summary *************
   ** Warning ** The following Report Variables were requested but not generated -- check.rdd file
   **   ~~~   ** Either the IDF did not contain these elements, the variable name is misspelled,
   **   ~~~   ** or the requested variable is an advanced output which requires Output : Diagnostics, DisplayAdvancedReportVariables;
   ************* Key=*, VarName=BASEBOARD TOTAL HEATING ENERGY, Frequency=
   ************* Key=*, VarName=WATER HEATER NATURALGAS ENERGY, Frequency=
   ************* Key=*, VarName=COOLING COIL TOTAL HEATING ENERGY, Frequency=
   ************* There are 34 unused schedules in input.
   ************* There are 388 unused week schedules in input.
   ************* There are 397 unused day schedules in input.
   ************* Use Output:Diagnostics,DisplayUnusedSchedules; to see them.
   *************
   ************* ===== Recurring Error Summary =====
   ************* The following recurring error messages occurred.
   *************
   *************  ** Warning ** "TOTAL HOT WATER LOAD" - Target water temperature should be less than or equal to the hot water temperature error continues...
   *************  **   ~~~   **   This error occurred 93361 total times;
   *************  **   ~~~   **   during Warmup 0 times;
   *************  **   ~~~   **   during Sizing 0 times.
   *************  **   ~~~   **   Max=9.708058  Min=6.846754E-004
   *************
   *************  ** Warning ** Temperature out of range [-100. to 200.] (PsyPsatFnTemp)
   *************  **   ~~~   **   This error occurred 7 total times;
   *************  **   ~~~   **   during Warmup 0 times;
   *************  **   ~~~   **   during Sizing 0 times.
   *************  **   ~~~   **   Max=-262.353638 C  Min=-1100.640381 C
   *************
   *************  ** Warning ** SimHVAC: Exceeding Maximum iterations for all HVAC loops, during ANNUAL continues
   *************  **   ~~~   **   This error occurred 4 total times;
   *************  **   ~~~   **   during Warmup 0 times;
   *************  **   ~~~   **   during Sizing 0 times.
   *************
   *************
   ************* ===== Final Error Summary =====
   ************* The following error categories occurred.  Consider correcting or noting.
   ************* Nominally Unused Constructions
   ************* ..The nominally unused constructions warning is provided to alert you to potential conditions that can cause
   ************* ..extra time during simulation. Each construction is calculated by the algorithm indicated in the HeatBalanceAlgorithm
   ************* ..object. You may remove the constructions indicated (when you use the DisplayExtraWarnings option).
   *************
   ************* EnergyPlus Warmup Error Summary. During Warmup: 1 Warning; 0 Severe Errors.
   ************* EnergyPlus Sizing Error Summary. During Sizing: 4 Warning; 0 Severe Errors.
   ************* EnergyPlus Completed Successfully-- 93404 Warning; 0 Severe Errors; Elapsed Time=00hr 01min 32.99sec
