Program Version,EnergyPlus, Version 22.2.0-c249759bad, YMD=2023.09.01 19:04,
   ************* Beginning Zone Sizing Calculations
   ** Warning ** ProcessScheduleInput: Schedule:Constant="ALWAYS ON DISCRETE", Schedule Type Limits Name="ONOFF" not found -- will not be validated
   ** Warning ** Foundation:Kiva="KIVA FOUNDATION", no Interior Horizontal Insulation Material Name defined
   **   ~~~   ** Interior Horizontal Insulation Depth will not be used.
   ** Warning ** CheckUsedConstructions: There are 15 nominally unused constructions in input.
   **   ~~~   ** Each Unused construction is shown.
   ************* Construction=INTERIOR FLOOR
   ************* Construction=INTERIOR WINDOW
   ************* Construction=EXTERIOR DOOR
   ************* Construction=INTERIOR DOOR
   ************* Construction=GABLE CONSTRUCTION
   ************* Construction=CRAWL_FLOOR
   ************* Construction=INSULATED PIPE
   ************* Construction=PLAIN PIPE
   ************* Construction=TDD PIPE
   ************* Construction=TDD DOME
   ************* Construction=TDD DIFFUSER
   ************* Construction=CRAWL WALL
   ************* Construction=CEILING-FLOOR-LAYER
   ************* Construction=SLAB CONSTRUCTION W FULL R10 INSULATION
   ************* Construction=SLAB CONSTRUCTION W FULL R5 INSULATION
   ** Warning ** GetDXCoils: Coil:Heating:DX:SingleSpeed="DX_HEATING_COIL" curve values
   **   ~~~   ** ... Defrost Energy Input Ratio Function of Temperature Curve Name = DEFROSTEIR output is not equal to 1.0 (+ or - 10%) at rated conditions.
   **   ~~~   ** ... Curve output at rated conditions = 0.152
   ************* Beginning System Sizing Calculations
   ************* Beginning Plant Sizing Calculations
   ** Warning ** Coil:WaterHeating:AirToWaterHeatPump:Wrapped "HEAT PUMP WATER HEATER EVAPORATOR": Rated air volume flow rate per watt of rated total water heating capacity is out of range
   **   ~~~   ** Min Rated Vol Flow Per Watt=[4.027E-005], Rated Vol Flow Per Watt=[1.510E-004], Max Rated Vol Flow Per Watt=[8.056E-005]. See Input-Output Reference Manual for valid range.
   ************* SizeFan: : Potential issue with equipment sizing for Fan:OnOff HEAT PUMP WATER HEATER FAN
   **   ~~~   ** User-Specified Maximum Flow Rate [m3/s] = 0.22653
   **   ~~~   ** differs from Design Size Maximum Flow Rate [m3/s] = 7.55250E-002
   **   ~~~   ** This may, or may not, indicate mismatched component sizes.
   **   ~~~   ** Verify that the value entered is intended and is consistent with other components.
   ** Warning ** Water heater = WATER HEATER TANK:  Recovery Efficiency and Energy Factor could not be calculated during the test for standard ratings
   **   ~~~   ** Setpoint was never recovered and/or heater never turned on
   ** Warning ** Check input. Pump nominal power or motor efficiency is set to 0, for pump=MAINS PRESSURE
   ** Warning ** AirflowNetwork::Solver::validate_distribution: Heat pump water heater is simulated along with an AirflowNetwork but is not included in the AirflowNetwork.
   ** Warning ** Output:Meter: invalid Key Name="ELECTRIC_RANGE:INTERIOREQUIPMENT:ELECTRICITY" - not found.
   ** Warning ** Output:Meter: invalid Key Name="ELECTRIC_DRYER:INTERIOREQUIPMENT:ELECTRICITY" - not found.
   ** Warning ** Output:Meter: invalid Key Name="HEATRECOVERY:ELECTRICITY" - not found.
   ** Warning ** Output:Meter: invalid Key Name="HEATING:NATURALGAS" - not found.
   ** Warning ** Output:Meter: invalid Key Name="WATERSYSTEMS:NATURALGAS" - not found.
   ** Warning ** Output:Meter: invalid Key Name="PROPANE:FACILITY" - not found.
   ** Warning ** Output:Meter: invalid Key Name="HEATING:PROPANE" - not found.
   ************* Testing Individual Branch Integrity
   ************* All Branches passed integrity testing
   ************* Testing Individual Supply Air Path Integrity
   ************* All Supply Air Paths passed integrity testing
   ************* Testing Individual Return Air Path Integrity
   ************* All Return Air Paths passed integrity testing
   ************* No node connection errors were found.
   ************* Beginning Simulation
   ** Warning ** CalcEquipmentFlowRates: "TOTAL HOT WATER LOAD" - Target water temperature is greater than the hot water temperature by (2.80 C)
   **   ~~~   **  Environment=EXTREME_WINTER, at Simulation time=01/08 03:45 - 04:00
   **   ~~~   ** ...target water temperature     = 53.33 C
   **   ~~~   ** ...hot water temperature        = 50.54 C
   **   ~~~   ** ...Target water temperature should be less than or equal to the hot water temperature. Verify temperature setpoints and schedules.
   ** Warning ** SimHVAC: Maximum iterations (20) exceeded for all HVAC loops, at ANNUAL, 02/14 12:30 - 12:38
   **   ~~~   ** The solution for one or more of the Air Loop HVAC systems did not appear to converge
   **   ~~~   ** Air System Named = CENTRAL SYSTEM did not converge for mass flow rate
   **   ~~~   ** Check values should be zero. Most Recent values listed first.
   **   ~~~   ** Demand-to-Supply interface mass flow rate check value iteration history trace: 6.885707E-002,6.885707E-002,6.885707E-002,6.885707E-002,6.885707E-002,6.885707E-002,6.885707E-002,6.885707E-002,6.885707E-002,6.885707E-002,
   **   ~~~   ** Supply-to-demand interface deck 1 mass flow rate check value iteration history trace: 6.885707E-002,6.885707E-002,6.885707E-002,6.885707E-002,6.885707E-002,6.885707E-002,6.885707E-002,6.885707E-002,6.885707E-002,6.885707E-002,
   **   ~~~   ** Air System Named = CENTRAL SYSTEM did not converge for energy
   **   ~~~   ** Check values should be zero. Most Recent values listed first.
   **   ~~~   ** Demand-to-Supply interface energy check value iteration history trace: 1351.738413,1351.738412,1351.738412,1351.738412,1351.738412,1351.738412,1351.738412,1351.738412,1351.738412,1351.738412,
   **   ~~~   ** Supply-to-demand interface deck 1 energy check value iteration history trace: 2167.506853,2167.506853,2167.506853,2167.506852,2167.506852,2167.506852,2167.506852,2167.506852,2167.506852,2167.506852,
   ** Warning ** SimHVAC: Maximum iterations (20) exceeded for all HVAC loops, at ANNUAL, 02/19 14:25 - 14:30
   **   ~~~   ** The solution for one or more of the Air Loop HVAC systems did not appear to converge
   **   ~~~   ** Air System Named = CENTRAL SYSTEM did not converge for mass flow rate
   **   ~~~   ** Check values should be zero. Most Recent values listed first.
   **   ~~~   ** Demand-to-Supply interface mass flow rate check value iteration history trace: 8.274347E-002,8.274347E-002,8.274347E-002,8.274347E-002,8.274347E-002,8.274347E-002,8.274347E-002,8.274347E-002,8.274347E-002,8.274347E-002,
   **   ~~~   ** Supply-to-demand interface deck 1 mass flow rate check value iteration history trace: 8.274347E-002,8.274347E-002,8.274347E-002,8.274347E-002,8.274347E-002,8.274347E-002,8.274347E-002,8.274347E-002,8.274347E-002,8.274347E-002,
   **   ~~~   ** Air System Named = CENTRAL SYSTEM did not converge for energy
   **   ~~~   ** Check values should be zero. Most Recent values listed first.
   **   ~~~   ** Demand-to-Supply interface energy check value iteration history trace: 1625.213539,1625.213539,1625.213539,1625.213539,1625.213539,1625.213538,1625.213538,1625.213538,1625.213538,1625.213538,
   **   ~~~   ** Supply-to-demand interface deck 1 energy check value iteration history trace: 2452.278789,2452.278789,2452.278789,2452.278789,2452.278789,2452.278789,2452.278788,2452.278788,2452.278788,2452.278788,
   ** Warning ** SimHVAC: Maximum iterations (20) exceeded for all HVAC loops, at ANNUAL, 03/29 18:00 - 18:08
   **   ~~~   ** The solution for one or more of the Air Loop HVAC systems did not appear to converge
   **   ~~~   ** Air System Named = CENTRAL SYSTEM did not converge for mass flow rate
   **   ~~~   ** Check values should be zero. Most Recent values listed first.
   **   ~~~   ** Demand-to-Supply interface mass flow rate check value iteration history trace: 5.542930E-002,5.542930E-002,5.542930E-002,5.542930E-002,5.542930E-002,5.542930E-002,5.542930E-002,5.542930E-002,5.542930E-002,5.542930E-002,
   **   ~~~   ** Supply-to-demand interface deck 1 mass flow rate check value iteration history trace: 5.542930E-002,5.542930E-002,5.542930E-002,5.542930E-002,5.542930E-002,5.542930E-002,5.542930E-002,5.542930E-002,5.542930E-002,5.542930E-002,
   **   ~~~   ** Air System Named = CENTRAL SYSTEM did not converge for energy
   **   ~~~   ** Check values should be zero. Most Recent values listed first.
   **   ~~~   ** Demand-to-Supply interface energy check value iteration history trace: 1102.226932,1102.226932,1102.226932,1102.226932,1102.226932,1102.226932,1102.226932,1102.226932,1102.226932,1102.226932,
   **   ~~~   ** Supply-to-demand interface deck 1 energy check value iteration history trace: 1874.560926,1874.560926,1874.560926,1874.560925,1874.560925,1874.560925,1874.560925,1874.560925,1874.560925,1874.560925,
   ** Warning ** SimHVAC: Maximum iterations (20) exceeded for all HVAC loops, at ANNUAL, 04/07 09:05 - 09:10
   **   ~~~   ** The solution for one or more of the Air Loop HVAC systems did not appear to converge
   **   ~~~   ** Air System Named = CENTRAL SYSTEM did not converge for mass flow rate
   **   ~~~   ** Check values should be zero. Most Recent values listed first.
   **   ~~~   ** Demand-to-Supply interface mass flow rate check value iteration history trace: 5.925145E-002,5.925145E-002,5.925145E-002,5.925145E-002,5.925145E-002,5.925145E-002,5.925145E-002,5.925145E-002,5.925145E-002,5.925145E-002,
   **   ~~~   ** Supply-to-demand interface deck 1 mass flow rate check value iteration history trace: 5.925145E-002,5.925145E-002,5.925145E-002,5.925145E-002,5.925145E-002,5.925145E-002,5.925145E-002,5.925145E-002,5.925145E-002,5.925145E-002,
   **   ~~~   ** Air System Named = CENTRAL SYSTEM did not converge for energy
   **   ~~~   ** Check values should be zero. Most Recent values listed first.
   **   ~~~   ** Demand-to-Supply interface energy check value iteration history trace: 1166.591187,1166.591187,1166.591187,1166.591187,1166.591187,1166.591187,1166.591186,1166.591186,1166.591186,1166.591186,
   **   ~~~   ** Supply-to-demand interface deck 1 energy check value iteration history trace: 2135.170558,2135.170558,2135.170558,2135.170558,2135.170558,2135.170558,2135.170558,2135.170557,2135.170557,2135.170557,
   ** Warning ** SimHVAC: Maximum iterations (20) exceeded for all HVAC loops, at ANNUAL, 04/12 13:00 - 13:15
   **   ~~~   ** The solution for one or more of the Air Loop HVAC systems did not appear to converge
   **   ~~~   ** Air System Named = CENTRAL SYSTEM did not converge for mass flow rate
   **   ~~~   ** Check values should be zero. Most Recent values listed first.
   **   ~~~   ** Demand-to-Supply interface mass flow rate check value iteration history trace: 5.521664E-002,5.521664E-002,5.521664E-002,5.521664E-002,5.521664E-002,5.521664E-002,5.521664E-002,5.521664E-002,5.521664E-002,5.521664E-002,
   **   ~~~   ** Supply-to-demand interface deck 1 mass flow rate check value iteration history trace: 5.521664E-002,5.521664E-002,5.521664E-002,5.521664E-002,5.521664E-002,5.521664E-002,5.521664E-002,5.521664E-002,5.521664E-002,5.521664E-002,
   **   ~~~   ** Air System Named = CENTRAL SYSTEM did not converge for energy
   **   ~~~   ** Check values should be zero. Most Recent values listed first.
   **   ~~~   ** Demand-to-Supply interface energy check value iteration history trace: 1094.265342,1094.265342,1094.265342,1094.265342,1094.265341,1094.265341,1094.265341,1094.265341,1094.265341,1094.265341,
   **   ~~~   ** Supply-to-demand interface deck 1 energy check value iteration history trace: 1989.157669,1989.157668,1989.157668,1989.157668,1989.157667,1989.157667,1989.157667,1989.157666,1989.157666,1989.157666,
   **   ~~~   ** Node named ZONE INLET NODE shows oscillating temperatures across iterations with a repeated value of 35.850947
   **   ~~~   ** Node named ZONE INLET NODE temperature [C] iteration history trace (most recent first): 35.850947,35.850946,35.850946,35.850946,35.850946,35.850945,35.850945,35.850945,35.850945,35.850945,
   ** Warning ** SimHVAC: Maximum iterations (20) exceeded for all HVAC loops, at ANNUAL, 04/19 09:40 - 09:45
   **   ~~~   ** The solution for one or more of the Air Loop HVAC systems did not appear to converge
   **   ~~~   ** Air System Named = CENTRAL SYSTEM did not converge for mass flow rate
   **   ~~~   ** Check values should be zero. Most Recent values listed first.
   **   ~~~   ** Demand-to-Supply interface mass flow rate check value iteration history trace: 6.573938E-002,6.573938E-002,6.573938E-002,6.573938E-002,6.573938E-002,6.573938E-002,6.573938E-002,6.573938E-002,6.573938E-002,6.573938E-002,
   **   ~~~   ** Supply-to-demand interface deck 1 mass flow rate check value iteration history trace: 6.573938E-002,6.573938E-002,6.573938E-002,6.573938E-002,6.573938E-002,6.573938E-002,6.573938E-002,6.573938E-002,6.573938E-002,6.573938E-002,
   **   ~~~   ** Air System Named = CENTRAL SYSTEM did not converge for energy
   **   ~~~   ** Check values should be zero. Most Recent values listed first.
   **   ~~~   ** Demand-to-Supply interface energy check value iteration history trace: 1302.757192,1302.757192,1302.757191,1302.757191,1302.757191,1302.757191,1302.757191,1302.757191,1302.757191,1302.757191,
   **   ~~~   ** Supply-to-demand interface deck 1 energy check value iteration history trace: 2263.366502,2263.366502,2263.366502,2263.366502,2263.366502,2263.366502,2263.366502,2263.366501,2263.366501,2263.366501,
   ** Warning ** SimHVAC: Maximum iterations (20) exceeded for all HVAC loops, at ANNUAL, 05/01 19:15 - 19:30
   **   ~~~   ** The solution for one or more of the Air Loop HVAC systems did not appear to converge
   **   ~~~   ** Air System Named = CENTRAL SYSTEM did not converge for mass flow rate
   **   ~~~   ** Check values should be zero. Most Recent values listed first.
   **   ~~~   ** Demand-to-Supply interface mass flow rate check value iteration history trace: 6.280107E-002,6.280107E-002,6.280107E-002,6.280107E-002,6.280107E-002,6.280107E-002,6.280107E-002,6.280107E-002,6.280107E-002,6.280107E-002,
   **   ~~~   ** Supply-to-demand interface deck 1 mass flow rate check value iteration history trace: 6.280107E-002,6.280107E-002,6.280107E-002,6.280107E-002,6.280107E-002,6.280107E-002,6.280107E-002,6.280107E-002,6.280107E-002,6.280107E-002,
   **   ~~~   ** Air System Named = CENTRAL SYSTEM did not converge for energy
   **   ~~~   ** Check values should be zero. Most Recent values listed first.
   **   ~~~   ** Demand-to-Supply interface energy check value iteration history trace: 1243.108445,1243.108445,1243.108444,1243.108444,1243.108444,1243.108444,1243.108444,1243.108444,1243.108444,1243.108444,
   **   ~~~   ** Supply-to-demand interface deck 1 energy check value iteration history trace: 2193.592088,2193.592088,2193.592088,2193.592087,2193.592087,2193.592087,2193.592087,2193.592087,2193.592087,2193.592087,
   ** Warning ** SimHVAC: Maximum iterations (20) exceeded for all HVAC loops, at ANNUAL, 06/14 09:38 - 09:45
   **   ~~~   ** The solution for one or more of the Air Loop HVAC systems did not appear to converge
   **   ~~~   ** Air System Named = CENTRAL SYSTEM did not converge for mass flow rate
   **   ~~~   ** Check values should be zero. Most Recent values listed first.
   **   ~~~   ** Demand-to-Supply interface mass flow rate check value iteration history trace: 0.137719,0.137719,0.137719,0.137719,0.137719,0.137719,0.137719,0.137719,0.137719,0.137719,
   **   ~~~   ** Supply-to-demand interface deck 1 mass flow rate check value iteration history trace: 0.137719,0.137719,0.137719,0.137719,0.137719,0.137719,0.137719,0.137719,0.137719,0.137719,
   **   ~~~   ** Air System Named = CENTRAL SYSTEM did not converge for energy
   **   ~~~   ** Check values should be zero. Most Recent values listed first.
   **   ~~~   ** Demand-to-Supply interface energy check value iteration history trace: 3246.367254,3246.367254,3246.367255,3246.367255,3246.367255,3246.367256,3246.367256,3246.367256,3246.367257,3246.367257,
   **   ~~~   ** Supply-to-demand interface deck 1 energy check value iteration history trace: 1676.907543,1676.907543,1676.907543,1676.907543,1676.907544,1676.907544,1676.907544,1676.907544,1676.907544,1676.907545,
   ** Warning ** SimHVAC: Maximum iterations (20) exceeded for all HVAC loops, at ANNUAL, 06/17 23:53 - 24:00
   **   ~~~   ** The solution for one or more of the Air Loop HVAC systems did not appear to converge
   **   ~~~   ** Air System Named = CENTRAL SYSTEM did not converge for mass flow rate
   **   ~~~   ** Check values should be zero. Most Recent values listed first.
   **   ~~~   ** Demand-to-Supply interface mass flow rate check value iteration history trace: 0.103917,0.103917,0.103917,0.103917,0.103917,0.103917,0.103917,0.103917,0.103917,0.103917,
   **   ~~~   ** Supply-to-demand interface deck 1 mass flow rate check value iteration history trace: 0.103917,0.103917,0.103917,0.103917,0.103917,0.103917,0.103917,0.103917,0.103917,0.103917,
   **   ~~~   ** Air System Named = CENTRAL SYSTEM did not converge for energy
   **   ~~~   ** Check values should be zero. Most Recent values listed first.
   **   ~~~   ** Demand-to-Supply interface energy check value iteration history trace: 2563.549064,2563.549064,2563.549064,2563.549064,2563.549065,2563.549065,2563.549065,2563.549065,2563.549065,2563.549065,
   **   ~~~   ** Supply-to-demand interface deck 1 energy check value iteration history trace: 1290.495056,1290.495056,1290.495056,1290.495056,1290.495056,1290.495056,1290.495056,1290.495056,1290.495057,1290.495057,
   ** Warning ** SimHVAC: Maximum iterations (20) exceeded for all HVAC loops, at ANNUAL, 10/02 17:53 - 18:00
   **   ~~~   ** The solution for one or more of the Air Loop HVAC systems did not appear to converge
   **   ~~~   ** Air System Named = CENTRAL SYSTEM did not converge for mass flow rate
   **   ~~~   ** Check values should be zero. Most Recent values listed first.
   **   ~~~   ** Demand-to-Supply interface mass flow rate check value iteration history trace: 0.148900,0.148900,0.148900,0.148900,0.148900,0.148900,0.148900,0.148900,0.148900,0.148900,
   **   ~~~   ** Supply-to-demand interface deck 1 mass flow rate check value iteration history trace: 0.148900,0.148900,0.148900,0.148900,0.148900,0.148900,0.148900,0.148900,0.148900,0.148900,
   **   ~~~   ** Air System Named = CENTRAL SYSTEM did not converge for energy
   **   ~~~   ** Check values should be zero. Most Recent values listed first.
   **   ~~~   ** Demand-to-Supply interface energy check value iteration history trace: 3585.919274,3585.919275,3585.919275,3585.919276,3585.919277,3585.919278,3585.919278,3585.919279,3585.919280,3585.919281,
   **   ~~~   ** Supply-to-demand interface deck 1 energy check value iteration history trace: 1533.109981,1533.109982,1533.109982,1533.109982,1533.109983,1533.109983,1533.109983,1533.109984,1533.109984,1533.109984,
   ** Warning ** SimHVAC: Maximum iterations (20) exceeded for all HVAC loops, at ANNUAL, 10/12 20:53 - 21:00
   **   ~~~   ** The solution for one or more of the Air Loop HVAC systems did not appear to converge
   **   ~~~   ** Air System Named = CENTRAL SYSTEM did not converge for mass flow rate
   **   ~~~   ** Check values should be zero. Most Recent values listed first.
   **   ~~~   ** Demand-to-Supply interface mass flow rate check value iteration history trace: 4.309711E-002,4.309711E-002,4.309711E-002,4.309711E-002,4.309711E-002,4.309711E-002,4.309711E-002,4.309711E-002,4.309711E-002,4.309711E-002,
   **   ~~~   ** Supply-to-demand interface deck 1 mass flow rate check value iteration history trace: 4.309711E-002,4.309711E-002,4.309711E-002,4.309711E-002,4.309711E-002,4.309711E-002,4.309711E-002,4.309711E-002,4.309711E-002,4.309711E-002,
   **   ~~~   ** Air System Named = CENTRAL SYSTEM did not converge for energy
   **   ~~~   ** Check values should be zero. Most Recent values listed first.
   **   ~~~   ** Demand-to-Supply interface energy check value iteration history trace: 1004.012027,1004.012027,1004.012027,1004.012027,1004.012027,1004.012027,1004.012027,1004.012027,1004.012027,1004.012027,
   **   ~~~   ** Supply-to-demand interface deck 1 energy check value iteration history trace: 394.322995,394.322995,394.322995,394.322995,394.322995,394.322995,394.322995,394.322995,394.322996,394.322996,
   ** Warning ** SimHVAC: Maximum iterations (20) exceeded for all HVAC loops, at ANNUAL, 10/29 19:45 - 20:00
   **   ~~~   ** The solution for one or more of the Air Loop HVAC systems did not appear to converge
   **   ~~~   ** Air System Named = CENTRAL SYSTEM did not converge for mass flow rate
   **   ~~~   ** Check values should be zero. Most Recent values listed first.
   **   ~~~   ** Demand-to-Supply interface mass flow rate check value iteration history trace: 6.583930E-002,6.583930E-002,6.583930E-002,6.583930E-002,6.583930E-002,6.583930E-002,6.583930E-002,6.583930E-002,6.583930E-002,6.583930E-002,
   **   ~~~   ** Supply-to-demand interface deck 1 mass flow rate check value iteration history trace: 6.583930E-002,6.583930E-002,6.583930E-002,6.583930E-002,6.583930E-002,6.583930E-002,6.583930E-002,6.583930E-002,6.583930E-002,6.583930E-002,
   **   ~~~   ** Air System Named = CENTRAL SYSTEM did not converge for energy
   **   ~~~   ** Check values should be zero. Most Recent values listed first.
   **   ~~~   ** Demand-to-Supply interface energy check value iteration history trace: 1306.389946,1306.389945,1306.389945,1306.389945,1306.389945,1306.389945,1306.389945,1306.389945,1306.389945,1306.389945,
   **   ~~~   ** Supply-to-demand interface deck 1 energy check value iteration history trace: 2246.056101,2246.056101,2246.056100,2246.056100,2246.056100,2246.056100,2246.056100,2246.056100,2246.056100,2246.056100,
   ** Warning ** SimHVAC: Maximum iterations (20) exceeded for all HVAC loops, at ANNUAL, 11/09 08:33 - 08:36
   **   ~~~   ** The solution for one or more of the Air Loop HVAC systems did not appear to converge
   **   ~~~   ** Air System Named = CENTRAL SYSTEM did not converge for mass flow rate
   **   ~~~   ** Check values should be zero. Most Recent values listed first.
   **   ~~~   ** Demand-to-Supply interface mass flow rate check value iteration history trace: 5.889572E-002,5.889572E-002,5.889572E-002,5.889572E-002,5.889572E-002,5.889572E-002,5.889572E-002,5.889572E-002,5.889572E-002,5.889572E-002,
   **   ~~~   ** Supply-to-demand interface deck 1 mass flow rate check value iteration history trace: 5.889572E-002,5.889572E-002,5.889572E-002,5.889572E-002,5.889572E-002,5.889572E-002,5.889572E-002,5.889572E-002,5.889572E-002,5.889572E-002,
   **   ~~~   ** Air System Named = CENTRAL SYSTEM did not converge for energy
   **   ~~~   ** Check values should be zero. Most Recent values listed first.
   **   ~~~   ** Demand-to-Supply interface energy check value iteration history trace: 1161.757231,1161.757231,1161.757231,1161.757231,1161.757231,1161.757231,1161.757231,1161.757231,1161.757231,1161.757230,
   **   ~~~   ** Supply-to-demand interface deck 1 energy check value iteration history trace: 2104.869013,2104.869013,2104.869013,2104.869013,2104.869013,2104.869013,2104.869013,2104.869012,2104.869012,2104.869012,
   ************* Simulation Error Summary *************
   ** Warning ** The following Report Variables were requested but not generated -- check.rdd file
   **   ~~~   ** Either the IDF did not contain these elements, the variable name is misspelled,
   **   ~~~   ** or the requested variable is an advanced output which requires Output : Diagnostics, DisplayAdvancedReportVariables;
   ************* Key=*, VarName=BASEBOARD TOTAL HEATING ENERGY, Frequency=
   ************* Key=*, VarName=WATER HEATER NATURALGAS ENERGY, Frequency=
   ************* Key=*, VarName=COOLING COIL TOTAL HEATING ENERGY, Frequency=
   ************* There are 34 unused schedules in input.
   ************* There are 388 unused week schedules in input.
   ************* There are 396 unused day schedules in input.
   ************* Use Output:Diagnostics,DisplayUnusedSchedules; to see them.
   *************
   ************* ===== Recurring Error Summary =====
   ************* The following recurring error messages occurred.
   *************
   *************  ** Warning ** "TOTAL HOT WATER LOAD" - Target water temperature should be less than or equal to the hot water temperature error continues...
   *************  **   ~~~   **   This error occurred 50417 total times;
   *************  **   ~~~   **   during Warmup 0 times;
   *************  **   ~~~   **   during Sizing 0 times.
   *************  **   ~~~   **   Max=6.858527  Min=2.182725E-004
   *************
   *************
   ************* ===== Final Error Summary =====
   ************* The following error categories occurred.  Consider correcting or noting.
   ************* Nominally Unused Constructions
   ************* ..The nominally unused constructions warning is provided to alert you to potential conditions that can cause
   ************* ..extra time during simulation. Each construction is calculated by the algorithm indicated in the HeatBalanceAlgorithm
   ************* ..object. You may remove the constructions indicated (when you use the DisplayExtraWarnings option).
   *************
   ************* EnergyPlus Warmup Error Summary. During Warmup: 0 Warning; 0 Severe Errors.
   ************* EnergyPlus Sizing Error Summary. During Sizing: 4 Warning; 0 Severe Errors.
   ************* EnergyPlus Completed Successfully-- 50447 Warning; 0 Severe Errors; Elapsed Time=00hr 01min 21.50sec
