Program Version,EnergyPlus, Version 22.2.0-c249759bad, YMD=2023.09.01 15:08,
   ************* Beginning Zone Sizing Calculations
   ** Warning ** ProcessScheduleInput: Schedule:Constant="ALWAYS ON DISCRETE", Schedule Type Limits Name="ONOFF" not found -- will not be validated
   ** Warning ** Foundation:Kiva="KIVA FOUNDATION", no Interior Horizontal Insulation Material Name defined
   **   ~~~   ** Interior Horizontal Insulation Depth will not be used.
   ** Warning ** CheckUsedConstructions: There are 15 nominally unused constructions in input.
   **   ~~~   ** Each Unused construction is shown.
   ************* Construction=INTERIOR FLOOR
   ************* Construction=INTERIOR WINDOW
   ************* Construction=EXTERIOR DOOR
   ************* Construction=INTERIOR DOOR
   ************* Construction=GABLE CONSTRUCTION
   ************* Construction=CRAWL_FLOOR
   ************* Construction=INSULATED PIPE
   ************* Construction=PLAIN PIPE
   ************* Construction=TDD PIPE
   ************* Construction=TDD DOME
   ************* Construction=TDD DIFFUSER
   ************* Construction=CRAWL WALL
   ************* Construction=CEILING-FLOOR-LAYER
   ************* Construction=SLAB CONSTRUCTION W FULL R10 INSULATION
   ************* Construction=SLAB CONSTRUCTION W FULL R5 INSULATION
   ** Warning ** GetDXCoils: Coil:Heating:DX:SingleSpeed="DX_HEATING_COIL" curve values
   **   ~~~   ** ... Defrost Energy Input Ratio Function of Temperature Curve Name = DEFROSTEIR output is not equal to 1.0 (+ or - 10%) at rated conditions.
   **   ~~~   ** ... Curve output at rated conditions = 0.152
   ************* Beginning System Sizing Calculations
   ************* Beginning Plant Sizing Calculations
   ** Warning ** Coil:WaterHeating:AirToWaterHeatPump:Wrapped "HEAT PUMP WATER HEATER EVAPORATOR": Rated air volume flow rate per watt of rated total water heating capacity is out of range
   **   ~~~   ** Min Rated Vol Flow Per Watt=[4.027E-005], Rated Vol Flow Per Watt=[1.386E-004], Max Rated Vol Flow Per Watt=[8.056E-005]. See Input-Output Reference Manual for valid range.
   ** Warning ** Water heater = WATER HEATER TANK:  Recovery Efficiency and Energy Factor could not be calculated during the test for standard ratings
   **   ~~~   ** Setpoint was never recovered and/or heater never turned on
   ** Warning ** Check input. Pump nominal power or motor efficiency is set to 0, for pump=MAINS PRESSURE
   ** Warning ** Output:Meter: invalid Key Name="ELECTRIC_RANGE:INTERIOREQUIPMENT:ELECTRICITY" - not found.
   ** Warning ** Output:Meter: invalid Key Name="ELECTRIC_DRYER:INTERIOREQUIPMENT:ELECTRICITY" - not found.
   ** Warning ** Output:Meter: invalid Key Name="HEATRECOVERY:ELECTRICITY" - not found.
   ** Warning ** Output:Meter: invalid Key Name="HEATING:NATURALGAS" - not found.
   ** Warning ** Output:Meter: invalid Key Name="WATERSYSTEMS:NATURALGAS" - not found.
   ** Warning ** Output:Meter: invalid Key Name="PROPANE:FACILITY" - not found.
   ** Warning ** Output:Meter: invalid Key Name="HEATING:PROPANE" - not found.
   ************* Testing Individual Branch Integrity
   ************* All Branches passed integrity testing
   ************* Testing Individual Supply Air Path Integrity
   ************* All Supply Air Paths passed integrity testing
   ************* Testing Individual Return Air Path Integrity
   ************* All Return Air Paths passed integrity testing
   ************* No node connection errors were found.
   ************* Beginning Simulation
   ** Warning ** AirflowNetwork::Solver::validate_distribution: Heat pump water heater is simulated along with an AirflowNetwork but is not included in the AirflowNetwork.
   ** Warning ** CalcEquipmentFlowRates: "TOTAL HOT WATER LOAD" - Target water temperature is greater than the hot water temperature by (1.71 C)
   **   ~~~   **  Environment=EXTREME_WINTER, at Simulation time=02/03 06:00 - 06:15
   **   ~~~   ** ...target water temperature     = 53.33 C
   **   ~~~   ** ...hot water temperature        = 51.63 C
   **   ~~~   ** ...Target water temperature should be less than or equal to the hot water temperature. Verify temperature setpoints and schedules.
   ** Warning ** SimHVAC: Maximum iterations (20) exceeded for all HVAC loops, at ANNUAL, 01/06 16:30 - 16:45
   **   ~~~   ** The solution for one or more of the Air Loop HVAC systems did not appear to converge
   **   ~~~   ** Air System Named = CENTRAL SYSTEM did not converge for mass flow rate
   **   ~~~   ** Check values should be zero. Most Recent values listed first.
   **   ~~~   ** Demand-to-Supply interface mass flow rate check value iteration history trace: 7.580060E-002,7.580060E-002,7.580060E-002,7.580060E-002,7.580060E-002,7.580060E-002,7.580060E-002,7.580060E-002,7.580060E-002,7.580060E-002,
   **   ~~~   ** Supply-to-demand interface deck 1 mass flow rate check value iteration history trace: 7.580060E-002,7.580060E-002,7.580060E-002,7.580060E-002,7.580060E-002,7.580060E-002,7.580060E-002,7.580060E-002,7.580060E-002,7.580060E-002,
   **   ~~~   ** Air System Named = CENTRAL SYSTEM did not converge for energy
   **   ~~~   ** Check values should be zero. Most Recent values listed first.
   **   ~~~   ** Demand-to-Supply interface energy check value iteration history trace: 1501.623819,1501.623819,1501.623819,1501.623819,1501.623819,1501.623819,1501.623819,1501.623819,1501.623819,1501.623819,
   **   ~~~   ** Supply-to-demand interface deck 1 energy check value iteration history trace: 2453.393573,2453.393573,2453.393573,2453.393573,2453.393573,2453.393572,2453.393572,2453.393572,2453.393572,2453.393572,
   ** Warning ** SimHVAC: Maximum iterations (20) exceeded for all HVAC loops, at ANNUAL, 03/14 19:00 - 19:08
   **   ~~~   ** The solution for one or more of the Air Loop HVAC systems did not appear to converge
   **   ~~~   ** Air System Named = CENTRAL SYSTEM did not converge for mass flow rate
   **   ~~~   ** Check values should be zero. Most Recent values listed first.
   **   ~~~   ** Demand-to-Supply interface mass flow rate check value iteration history trace: 5.534163E-002,5.534163E-002,5.534163E-002,5.534163E-002,5.534163E-002,5.534163E-002,5.534163E-002,5.534163E-002,5.534163E-002,5.534163E-002,
   **   ~~~   ** Supply-to-demand interface deck 1 mass flow rate check value iteration history trace: 5.534163E-002,5.534163E-002,5.534163E-002,5.534163E-002,5.534163E-002,5.534163E-002,5.534163E-002,5.534163E-002,5.534163E-002,5.534163E-002,
   **   ~~~   ** Air System Named = CENTRAL SYSTEM did not converge for energy
   **   ~~~   ** Check values should be zero. Most Recent values listed first.
   **   ~~~   ** Demand-to-Supply interface energy check value iteration history trace: 1097.247113,1097.247113,1097.247113,1097.247112,1097.247112,1097.247112,1097.247112,1097.247112,1097.247112,1097.247112,
   **   ~~~   ** Supply-to-demand interface deck 1 energy check value iteration history trace: 2058.755305,2058.755305,2058.755305,2058.755305,2058.755305,2058.755304,2058.755304,2058.755304,2058.755304,2058.755304,
   ** Warning ** SimHVAC: Maximum iterations (20) exceeded for all HVAC loops, at ANNUAL, 05/11 18:38 - 18:45
   **   ~~~   ** The solution for one or more of the Air Loop HVAC systems did not appear to converge
   **   ~~~   ** Air System Named = CENTRAL SYSTEM did not converge for mass flow rate
   **   ~~~   ** Check values should be zero. Most Recent values listed first.
   **   ~~~   ** Demand-to-Supply interface mass flow rate check value iteration history trace: 7.821314E-002,7.821314E-002,7.821314E-002,7.821314E-002,7.821314E-002,7.821314E-002,7.821314E-002,7.821314E-002,7.821314E-002,7.821314E-002,
   **   ~~~   ** Supply-to-demand interface deck 1 mass flow rate check value iteration history trace: 7.821314E-002,7.821314E-002,7.821314E-002,7.821314E-002,7.821314E-002,7.821314E-002,7.821314E-002,7.821314E-002,7.821314E-002,7.821314E-002,
   **   ~~~   ** Air System Named = CENTRAL SYSTEM did not converge for energy
   **   ~~~   ** Check values should be zero. Most Recent values listed first.
   **   ~~~   ** Demand-to-Supply interface energy check value iteration history trace: 1552.341576,1552.341576,1552.341576,1552.341576,1552.341576,1552.341576,1552.341576,1552.341576,1552.341576,1552.341576,
   **   ~~~   ** Supply-to-demand interface deck 1 energy check value iteration history trace: 2820.728563,2820.728563,2820.728563,2820.728563,2820.728563,2820.728563,2820.728562,2820.728562,2820.728562,2820.728562,
   ** Warning ** SimHVAC: Maximum iterations (20) exceeded for all HVAC loops, at ANNUAL, 05/28 08:10 - 08:15
   **   ~~~   ** The solution for one or more of the Air Loop HVAC systems did not appear to converge
   **   ~~~   ** Air System Named = CENTRAL SYSTEM did not converge for mass flow rate
   **   ~~~   ** Check values should be zero. Most Recent values listed first.
   **   ~~~   ** Demand-to-Supply interface mass flow rate check value iteration history trace: 5.401955E-002,5.401955E-002,5.401955E-002,5.401955E-002,5.401955E-002,5.401955E-002,5.401955E-002,5.401955E-002,5.401955E-002,5.401955E-002,
   **   ~~~   ** Supply-to-demand interface deck 1 mass flow rate check value iteration history trace: 5.401955E-002,5.401955E-002,5.401955E-002,5.401955E-002,5.401955E-002,5.401955E-002,5.401955E-002,5.401955E-002,5.401955E-002,5.401955E-002,
   **   ~~~   ** Air System Named = CENTRAL SYSTEM did not converge for energy
   **   ~~~   ** Check values should be zero. Most Recent values listed first.
   **   ~~~   ** Demand-to-Supply interface energy check value iteration history trace: 1281.402122,1281.402122,1281.402122,1281.402122,1281.402123,1281.402123,1281.402123,1281.402124,1281.402124,1281.402124,
   **   ~~~   ** Supply-to-demand interface deck 1 energy check value iteration history trace: 585.370522,585.370522,585.370522,585.370522,585.370522,585.370523,585.370523,585.370523,585.370523,585.370523,
   ** Warning ** SimHVAC: Maximum iterations (20) exceeded for all HVAC loops, at ANNUAL, 05/28 09:48 - 09:51
   **   ~~~   ** The solution for one or more of the Air Loop HVAC systems did not appear to converge
   **   ~~~   ** Air System Named = CENTRAL SYSTEM did not converge for mass flow rate
   **   ~~~   ** Check values should be zero. Most Recent values listed first.
   **   ~~~   ** Demand-to-Supply interface mass flow rate check value iteration history trace: 8.941049E-002,8.941049E-002,8.941049E-002,8.941049E-002,8.941049E-002,8.941049E-002,8.941049E-002,8.941049E-002,8.941049E-002,8.941049E-002,
   **   ~~~   ** Supply-to-demand interface deck 1 mass flow rate check value iteration history trace: 8.941049E-002,8.941049E-002,8.941049E-002,8.941049E-002,8.941049E-002,8.941049E-002,8.941049E-002,8.941049E-002,8.941049E-002,8.941049E-002,
   **   ~~~   ** Air System Named = CENTRAL SYSTEM did not converge for energy
   **   ~~~   ** Check values should be zero. Most Recent values listed first.
   **   ~~~   ** Demand-to-Supply interface energy check value iteration history trace: 2109.821029,2109.821030,2109.821030,2109.821031,2109.821031,2109.821032,2109.821032,2109.821033,2109.821033,2109.821034,
   **   ~~~   ** Supply-to-demand interface deck 1 energy check value iteration history trace: 948.186538,948.186538,948.186538,948.186539,948.186539,948.186539,948.186539,948.186540,948.186540,948.186540,
   ** Warning ** SimHVAC: Maximum iterations (20) exceeded for all HVAC loops, at ANNUAL, 05/28 10:06 - 10:09
   **   ~~~   ** The solution for one or more of the Air Loop HVAC systems did not appear to converge
   **   ~~~   ** Air System Named = CENTRAL SYSTEM did not converge for mass flow rate
   **   ~~~   ** Check values should be zero. Most Recent values listed first.
   **   ~~~   ** Demand-to-Supply interface mass flow rate check value iteration history trace: 0.115571,0.115571,0.115571,0.115571,0.115571,0.115571,0.115571,0.115571,0.115571,0.115571,
   **   ~~~   ** Supply-to-demand interface deck 1 mass flow rate check value iteration history trace: 0.115571,0.115571,0.115571,0.115571,0.115571,0.115571,0.115571,0.115571,0.115571,0.115571,
   **   ~~~   ** Air System Named = CENTRAL SYSTEM did not converge for energy
   **   ~~~   ** Check values should be zero. Most Recent values listed first.
   **   ~~~   ** Demand-to-Supply interface energy check value iteration history trace: 2731.367990,2731.367991,2731.367992,2731.367992,2731.367993,2731.367994,2731.367994,2731.367995,2731.367996,2731.367996,
   **   ~~~   ** Supply-to-demand interface deck 1 energy check value iteration history trace: 1214.544861,1214.544861,1214.544861,1214.544862,1214.544862,1214.544862,1214.544863,1214.544863,1214.544863,1214.544864,
   ** Warning ** SimHVAC: Maximum iterations (20) exceeded for all HVAC loops, at ANNUAL, 05/29 07:54 - 07:57
   **   ~~~   ** The solution for one or more of the Air Loop HVAC systems did not appear to converge
   **   ~~~   ** Air System Named = CENTRAL SYSTEM did not converge for mass flow rate
   **   ~~~   ** Check values should be zero. Most Recent values listed first.
   **   ~~~   ** Demand-to-Supply interface mass flow rate check value iteration history trace: 0.254285,0.254285,0.254285,0.254285,0.254285,0.254285,0.254285,0.254285,0.254285,0.254285,
   **   ~~~   ** Supply-to-demand interface deck 1 mass flow rate check value iteration history trace: 0.254285,0.254285,0.254285,0.254285,0.254285,0.254285,0.254285,0.254285,0.254285,0.254285,
   **   ~~~   ** Air System Named = CENTRAL SYSTEM did not converge for energy
   **   ~~~   ** Check values should be zero. Most Recent values listed first.
   **   ~~~   ** Demand-to-Supply interface energy check value iteration history trace: 6028.168790,6028.168791,6028.168793,6028.168794,6028.168795,6028.168796,6028.168798,6028.168799,6028.168800,6028.168801,
   **   ~~~   ** Supply-to-demand interface deck 1 energy check value iteration history trace: 2763.527278,2763.527278,2763.527279,2763.527279,2763.527280,2763.527281,2763.527281,2763.527282,2763.527282,2763.527283,
   ** Warning ** SimHVAC: Maximum iterations (20) exceeded for all HVAC loops, at ANNUAL, 09/24 10:24 - 10:26
   **   ~~~   ** The solution for one or more of the Air Loop HVAC systems did not appear to converge
   **   ~~~   ** Air System Named = CENTRAL SYSTEM did not converge for mass flow rate
   **   ~~~   ** Check values should be zero. Most Recent values listed first.
   **   ~~~   ** Demand-to-Supply interface mass flow rate check value iteration history trace: 0.116107,0.116107,0.116107,0.116107,0.116107,0.116107,0.116107,0.116107,0.116107,0.116107,
   **   ~~~   ** Supply-to-demand interface deck 1 mass flow rate check value iteration history trace: 0.116107,0.116107,0.116107,0.116107,0.116107,0.116107,0.116107,0.116107,0.116107,0.116107,
   **   ~~~   ** Air System Named = CENTRAL SYSTEM did not converge for energy
   **   ~~~   ** Check values should be zero. Most Recent values listed first.
   **   ~~~   ** Demand-to-Supply interface energy check value iteration history trace: 2738.987925,2738.987926,2738.987926,2738.987927,2738.987927,2738.987928,2738.987928,2738.987928,2738.987929,2738.987929,
   **   ~~~   ** Supply-to-demand interface deck 1 energy check value iteration history trace: 1169.280613,1169.280613,1169.280613,1169.280613,1169.280613,1169.280613,1169.280614,1169.280614,1169.280614,1169.280614,
   ** Warning ** SimHVAC: Maximum iterations (20) exceeded for all HVAC loops, at ANNUAL, 09/24 10:35 - 10:38
   **   ~~~   ** The solution for one or more of the Air Loop HVAC systems did not appear to converge
   **   ~~~   ** Air System Named = CENTRAL SYSTEM did not converge for mass flow rate
   **   ~~~   ** Check values should be zero. Most Recent values listed first.
   **   ~~~   ** Demand-to-Supply interface mass flow rate check value iteration history trace: 0.130846,0.130846,0.130846,0.130846,0.130846,0.130846,0.130846,0.130846,0.130846,0.130846,
   **   ~~~   ** Supply-to-demand interface deck 1 mass flow rate check value iteration history trace: 0.130846,0.130846,0.130846,0.130846,0.130846,0.130846,0.130846,0.130846,0.130846,0.130846,
   **   ~~~   ** Air System Named = CENTRAL SYSTEM did not converge for energy
   **   ~~~   ** Check values should be zero. Most Recent values listed first.
   **   ~~~   ** Demand-to-Supply interface energy check value iteration history trace: 3087.956821,3087.956821,3087.956822,3087.956822,3087.956823,3087.956823,3087.956824,3087.956824,3087.956825,3087.956825,
   **   ~~~   ** Supply-to-demand interface deck 1 energy check value iteration history trace: 1317.113216,1317.113216,1317.113217,1317.113217,1317.113217,1317.113217,1317.113217,1317.113218,1317.113218,1317.113218,
   ** Warning ** SimHVAC: Maximum iterations (20) exceeded for all HVAC loops, at ANNUAL, 10/28 10:00 - 10:15
   **   ~~~   ** The solution for one or more of the Air Loop HVAC systems did not appear to converge
   **   ~~~   ** Air System Named = CENTRAL SYSTEM did not converge for mass flow rate
   **   ~~~   ** Check values should be zero. Most Recent values listed first.
   **   ~~~   ** Demand-to-Supply interface mass flow rate check value iteration history trace: 9.458482E-002,9.458482E-002,9.458482E-002,9.458482E-002,9.458482E-002,9.458482E-002,9.458482E-002,9.458482E-002,9.458482E-002,9.458482E-002,
   **   ~~~   ** Supply-to-demand interface deck 1 mass flow rate check value iteration history trace: 9.458482E-002,9.458482E-002,9.458482E-002,9.458482E-002,9.458482E-002,9.458482E-002,9.458482E-002,9.458482E-002,9.458482E-002,9.458482E-002,
   **   ~~~   ** Air System Named = CENTRAL SYSTEM did not converge for energy
   **   ~~~   ** Check values should be zero. Most Recent values listed first.
   **   ~~~   ** Demand-to-Supply interface energy check value iteration history trace: 1874.328352,1874.328352,1874.328351,1874.328351,1874.328351,1874.328351,1874.328351,1874.328351,1874.328351,1874.328351,
   **   ~~~   ** Supply-to-demand interface deck 1 energy check value iteration history trace: 3006.176073,3006.176073,3006.176073,3006.176072,3006.176072,3006.176072,3006.176072,3006.176072,3006.176071,3006.176071,
   ** Warning ** SimHVAC: Maximum iterations (20) exceeded for all HVAC loops, at ANNUAL, 11/19 20:30 - 20:38
   **   ~~~   ** The solution for one or more of the Air Loop HVAC systems did not appear to converge
   **   ~~~   ** Air System Named = CENTRAL SYSTEM did not converge for mass flow rate
   **   ~~~   ** Check values should be zero. Most Recent values listed first.
   **   ~~~   ** Demand-to-Supply interface mass flow rate check value iteration history trace: 9.561645E-002,9.561645E-002,9.561645E-002,9.561645E-002,9.561645E-002,9.561645E-002,9.561645E-002,9.561645E-002,9.561645E-002,9.561645E-002,
   **   ~~~   ** Supply-to-demand interface deck 1 mass flow rate check value iteration history trace: 9.561645E-002,9.561645E-002,9.561645E-002,9.561645E-002,9.561645E-002,9.561645E-002,9.561645E-002,9.561645E-002,9.561645E-002,9.561645E-002,
   **   ~~~   ** Air System Named = CENTRAL SYSTEM did not converge for energy
   **   ~~~   ** Check values should be zero. Most Recent values listed first.
   **   ~~~   ** Demand-to-Supply interface energy check value iteration history trace: 1871.416546,1871.416546,1871.416546,1871.416546,1871.416546,1871.416546,1871.416546,1871.416545,1871.416545,1871.416545,
   **   ~~~   ** Supply-to-demand interface deck 1 energy check value iteration history trace: 3044.785487,3044.785487,3044.785487,3044.785487,3044.785486,3044.785486,3044.785486,3044.785486,3044.785486,3044.785486,
   ** Warning ** SimHVAC: Maximum iterations (20) exceeded for all HVAC loops, at ANNUAL, 12/09 11:45 - 11:50
   **   ~~~   ** The solution for one or more of the Air Loop HVAC systems did not appear to converge
   **   ~~~   ** Air System Named = CENTRAL SYSTEM did not converge for mass flow rate
   **   ~~~   ** Check values should be zero. Most Recent values listed first.
   **   ~~~   ** Demand-to-Supply interface mass flow rate check value iteration history trace: 1.431529E-002,1.431529E-002,1.431529E-002,1.431529E-002,1.431529E-002,1.431529E-002,1.431529E-002,1.431529E-002,1.431529E-002,1.431529E-002,
   **   ~~~   ** Supply-to-demand interface deck 1 mass flow rate check value iteration history trace: 1.431529E-002,1.431529E-002,1.431529E-002,1.431529E-002,1.431529E-002,1.431529E-002,1.431529E-002,1.431529E-002,1.431529E-002,1.431529E-002,
   **   ~~~   ** Air System Named = CENTRAL SYSTEM did not converge for energy
   **   ~~~   ** Check values should be zero. Most Recent values listed first.
   **   ~~~   ** Demand-to-Supply interface energy check value iteration history trace: 282.266198,282.266198,282.266198,282.266198,282.266198,282.266198,282.266198,282.266198,282.266197,282.266197,
   **   ~~~   ** Supply-to-demand interface deck 1 energy check value iteration history trace: 513.987048,513.987048,513.987047,513.987047,513.987047,513.987047,513.987047,513.987047,513.987047,513.987047,
   ** Warning ** SimHVAC: Maximum iterations (20) exceeded for all HVAC loops, at ANNUAL, 12/26 19:15 - 19:30
   **   ~~~   ** The solution for one or more of the Air Loop HVAC systems did not appear to converge
   **   ~~~   ** Air System Named = CENTRAL SYSTEM did not converge for mass flow rate
   **   ~~~   ** Check values should be zero. Most Recent values listed first.
   **   ~~~   ** Demand-to-Supply interface mass flow rate check value iteration history trace: 8.310478E-002,8.310478E-002,8.310478E-002,8.310478E-002,8.310478E-002,8.310478E-002,8.310478E-002,8.310478E-002,8.310478E-002,8.310478E-002,
   **   ~~~   ** Supply-to-demand interface deck 1 mass flow rate check value iteration history trace: 8.310478E-002,8.310478E-002,8.310478E-002,8.310478E-002,8.310478E-002,8.310478E-002,8.310478E-002,8.310478E-002,8.310478E-002,8.310478E-002,
   **   ~~~   ** Air System Named = CENTRAL SYSTEM did not converge for energy
   **   ~~~   ** Check values should be zero. Most Recent values listed first.
   **   ~~~   ** Demand-to-Supply interface energy check value iteration history trace: 1633.413373,1633.413373,1633.413373,1633.413373,1633.413372,1633.413372,1633.413372,1633.413372,1633.413372,1633.413372,
   **   ~~~   ** Supply-to-demand interface deck 1 energy check value iteration history trace: 2941.319041,2941.319040,2941.319040,2941.319040,2941.319040,2941.319040,2941.319040,2941.319040,2941.319039,2941.319039,
   ************* Simulation Error Summary *************
   ** Warning ** The following Report Variables were requested but not generated -- check.rdd file
   **   ~~~   ** Either the IDF did not contain these elements, the variable name is misspelled,
   **   ~~~   ** or the requested variable is an advanced output which requires Output : Diagnostics, DisplayAdvancedReportVariables;
   ************* Key=*, VarName=BASEBOARD TOTAL HEATING ENERGY, Frequency=
   ************* Key=*, VarName=WATER HEATER NATURALGAS ENERGY, Frequency=
   ************* Key=*, VarName=COOLING COIL TOTAL HEATING ENERGY, Frequency=
   ************* There are 34 unused schedules in input.
   ************* There are 388 unused week schedules in input.
   ************* There are 396 unused day schedules in input.
   ************* Use Output:Diagnostics,DisplayUnusedSchedules; to see them.
   *************
   ************* ===== Recurring Error Summary =====
   ************* The following recurring error messages occurred.
   *************
   *************  ** Warning ** "TOTAL HOT WATER LOAD" - Target water temperature should be less than or equal to the hot water temperature error continues...
   *************  **   ~~~   **   This error occurred 78079 total times;
   *************  **   ~~~   **   during Warmup 0 times;
   *************  **   ~~~   **   during Sizing 0 times.
   *************  **   ~~~   **   Max=10.6158  Min=6.695443E-005
   *************
   *************
   ************* ===== Final Error Summary =====
   ************* The following error categories occurred.  Consider correcting or noting.
   ************* Nominally Unused Constructions
   ************* ..The nominally unused constructions warning is provided to alert you to potential conditions that can cause
   ************* ..extra time during simulation. Each construction is calculated by the algorithm indicated in the HeatBalanceAlgorithm
   ************* ..object. You may remove the constructions indicated (when you use the DisplayExtraWarnings option).
   *************
   ************* EnergyPlus Warmup Error Summary. During Warmup: 1 Warning; 0 Severe Errors.
   ************* EnergyPlus Sizing Error Summary. During Sizing: 4 Warning; 0 Severe Errors.
   ************* EnergyPlus Completed Successfully-- 78109 Warning; 0 Severe Errors; Elapsed Time=00hr 04min 53.40sec
