Program Version,EnergyPlus, Version 22.2.0-c249759bad, YMD=2023.09.01 19:50,
   ************* Beginning Zone Sizing Calculations
   ** Warning ** ProcessScheduleInput: Schedule:Constant="ALWAYS ON DISCRETE", Schedule Type Limits Name="ONOFF" not found -- will not be validated
   ** Warning ** Foundation:Kiva="KIVA FOUNDATION", no Interior Horizontal Insulation Material Name defined
   **   ~~~   ** Interior Horizontal Insulation Depth will not be used.
   ** Warning ** CheckUsedConstructions: There are 15 nominally unused constructions in input.
   **   ~~~   ** Each Unused construction is shown.
   ************* Construction=INTERIOR FLOOR
   ************* Construction=INTERIOR WINDOW
   ************* Construction=EXTERIOR DOOR
   ************* Construction=INTERIOR DOOR
   ************* Construction=GABLE CONSTRUCTION
   ************* Construction=CRAWL_FLOOR
   ************* Construction=INSULATED PIPE
   ************* Construction=PLAIN PIPE
   ************* Construction=TDD PIPE
   ************* Construction=TDD DOME
   ************* Construction=TDD DIFFUSER
   ************* Construction=CRAWL WALL
   ************* Construction=CEILING-FLOOR-LAYER
   ************* Construction=SLAB CONSTRUCTION W FULL R10 INSULATION
   ************* Construction=SLAB CONSTRUCTION W FULL R5 INSULATION
   ** Warning ** GetDXCoils: Coil:Heating:DX:SingleSpeed="DX_HEATING_COIL" curve values
   **   ~~~   ** ... Defrost Energy Input Ratio Function of Temperature Curve Name = DEFROSTEIR output is not equal to 1.0 (+ or - 10%) at rated conditions.
   **   ~~~   ** ... Curve output at rated conditions = 0.152
   ************* Beginning System Sizing Calculations
   ************* Beginning Plant Sizing Calculations
   ** Warning ** SizeDXCoil Coil:Cooling:DX:SingleSpeed DX_COOLING_COIL
   **   ~~~   ** ...Gross Rated Total Cooling Capacity [W] will be limited by the maximum rated volume flow per rated total capacity ratio.
   **   ~~~   ** ...DX coil volume flow rate ( m3/s ) = 0.586436
   **   ~~~   ** ...Requested capacity ( W ) = 9224.983
   **   ~~~   ** ...Requested flow/capacity ratio ( m3/s/W ) = 6.357E-005
   **   ~~~   ** ...Maximum flow/capacity ratio ( m3/s/W ) = 6.041E-005
   **   ~~~   ** ...Adjusted capacity ( W ) = 9707.602
   ** Warning ** Coil:WaterHeating:AirToWaterHeatPump:Wrapped "HEAT PUMP WATER HEATER EVAPORATOR": Rated air volume flow rate per watt of rated total water heating capacity is out of range
   **   ~~~   ** Min Rated Vol Flow Per Watt=[4.027E-005], Rated Vol Flow Per Watt=[1.510E-004], Max Rated Vol Flow Per Watt=[8.056E-005]. See Input-Output Reference Manual for valid range.
   ************* SizeFan: : Potential issue with equipment sizing for Fan:OnOff HEAT PUMP WATER HEATER FAN
   **   ~~~   ** User-Specified Maximum Flow Rate [m3/s] = 0.22653
   **   ~~~   ** differs from Design Size Maximum Flow Rate [m3/s] = 7.55250E-002
   **   ~~~   ** This may, or may not, indicate mismatched component sizes.
   **   ~~~   ** Verify that the value entered is intended and is consistent with other components.
   ** Warning ** Water heater = WATER HEATER TANK:  Recovery Efficiency and Energy Factor could not be calculated during the test for standard ratings
   **   ~~~   ** Setpoint was never recovered and/or heater never turned on
   ** Warning ** Check input. Pump nominal power or motor efficiency is set to 0, for pump=MAINS PRESSURE
   ** Warning ** AirflowNetwork::Solver::validate_distribution: Heat pump water heater is simulated along with an AirflowNetwork but is not included in the AirflowNetwork.
   ** Warning ** Output:Meter: invalid Key Name="ELECTRIC_RANGE:INTERIOREQUIPMENT:ELECTRICITY" - not found.
   ** Warning ** Output:Meter: invalid Key Name="ELECTRIC_DRYER:INTERIOREQUIPMENT:ELECTRICITY" - not found.
   ** Warning ** Output:Meter: invalid Key Name="HEATRECOVERY:ELECTRICITY" - not found.
   ** Warning ** Output:Meter: invalid Key Name="HEATING:NATURALGAS" - not found.
   ** Warning ** Output:Meter: invalid Key Name="WATERSYSTEMS:NATURALGAS" - not found.
   ** Warning ** Output:Meter: invalid Key Name="PROPANE:FACILITY" - not found.
   ** Warning ** Output:Meter: invalid Key Name="HEATING:PROPANE" - not found.
   ************* Testing Individual Branch Integrity
   ************* All Branches passed integrity testing
   ************* Testing Individual Supply Air Path Integrity
   ************* All Supply Air Paths passed integrity testing
   ************* Testing Individual Return Air Path Integrity
   ************* All Return Air Paths passed integrity testing
   ************* No node connection errors were found.
   ************* Beginning Simulation
   ** Warning ** CalcEquipmentFlowRates: "TOTAL HOT WATER LOAD" - Target water temperature is greater than the hot water temperature by (4.58 C)
   **   ~~~   **  Environment=EXTREME_WINTER, at Simulation time=12/22 06:00 - 06:15
   **   ~~~   ** ...target water temperature     = 53.33 C
   **   ~~~   ** ...hot water temperature        = 48.75 C
   **   ~~~   ** ...Target water temperature should be less than or equal to the hot water temperature. Verify temperature setpoints and schedules.
   ** Warning ** SimHVAC: Maximum iterations (20) exceeded for all HVAC loops, at EXTREME_WINTER, 01/02 22:30 - 22:45
   **   ~~~   ** The solution for one or more of the Air Loop HVAC systems did not appear to converge
   **   ~~~   ** Air System Named = CENTRAL SYSTEM did not converge for mass flow rate
   **   ~~~   ** Check values should be zero. Most Recent values listed first.
   **   ~~~   ** Demand-to-Supply interface mass flow rate check value iteration history trace: 7.705916E-002,7.705916E-002,7.705916E-002,7.705916E-002,7.705916E-002,7.705916E-002,7.705916E-002,7.705916E-002,7.705916E-002,7.705916E-002,
   **   ~~~   ** Supply-to-demand interface deck 1 mass flow rate check value iteration history trace: 7.705916E-002,7.705916E-002,7.705916E-002,7.705916E-002,7.705916E-002,7.705916E-002,7.705916E-002,7.705916E-002,7.705916E-002,7.705916E-002,
   **   ~~~   ** Air System Named = CENTRAL SYSTEM did not converge for energy
   **   ~~~   ** Check values should be zero. Most Recent values listed first.
   **   ~~~   ** Demand-to-Supply interface energy check value iteration history trace: 1429.211765,1429.211765,1429.211765,1429.211765,1429.211765,1429.211764,1429.211764,1429.211764,1429.211764,1429.211764,
   **   ~~~   ** Supply-to-demand interface deck 1 energy check value iteration history trace: 2260.681375,2260.681375,2260.681375,2260.681375,2260.681375,2260.681375,2260.681374,2260.681374,2260.681374,2260.681374,
   ** Warning ** SimHVAC: Maximum iterations (20) exceeded for all HVAC loops, at EXTREME_WINTER, 01/03 19:50 - 19:55
   **   ~~~   ** The solution for one or more of the Air Loop HVAC systems did not appear to converge
   **   ~~~   ** Air System Named = CENTRAL SYSTEM did not converge for mass flow rate
   **   ~~~   ** Check values should be zero. Most Recent values listed first.
   **   ~~~   ** Demand-to-Supply interface mass flow rate check value iteration history trace: 7.721524E-002,7.721524E-002,7.721524E-002,7.721524E-002,7.721524E-002,7.721524E-002,7.721524E-002,7.721524E-002,7.721524E-002,7.721524E-002,
   **   ~~~   ** Supply-to-demand interface deck 1 mass flow rate check value iteration history trace: 7.721524E-002,7.721524E-002,7.721524E-002,7.721524E-002,7.721524E-002,7.721524E-002,7.721524E-002,7.721524E-002,7.721524E-002,7.721524E-002,
   **   ~~~   ** Air System Named = CENTRAL SYSTEM did not converge for energy
   **   ~~~   ** Check values should be zero. Most Recent values listed first.
   **   ~~~   ** Demand-to-Supply interface energy check value iteration history trace: 1536.435575,1536.435575,1536.435575,1536.435575,1536.435575,1536.435575,1536.435575,1536.435575,1536.435575,1536.435575,
   **   ~~~   ** Supply-to-demand interface deck 1 energy check value iteration history trace: 2425.987924,2425.987924,2425.987924,2425.987924,2425.987924,2425.987924,2425.987923,2425.987923,2425.987923,2425.987923,
   ** Warning ** SimHVAC: Maximum iterations (20) exceeded for all HVAC loops, at ANNUAL, 01/03 17:15 - 17:30
   **   ~~~   ** The solution for one or more of the Air Loop HVAC systems did not appear to converge
   **   ~~~   ** Air System Named = CENTRAL SYSTEM did not converge for mass flow rate
   **   ~~~   ** Check values should be zero. Most Recent values listed first.
   **   ~~~   ** Demand-to-Supply interface mass flow rate check value iteration history trace: 6.472317E-002,6.472317E-002,6.472317E-002,6.472317E-002,6.472317E-002,6.472317E-002,6.472317E-002,6.472317E-002,6.472317E-002,6.472317E-002,
   **   ~~~   ** Supply-to-demand interface deck 1 mass flow rate check value iteration history trace: 6.472317E-002,6.472317E-002,6.472317E-002,6.472317E-002,6.472317E-002,6.472317E-002,6.472317E-002,6.472317E-002,6.472317E-002,6.472317E-002,
   **   ~~~   ** Air System Named = CENTRAL SYSTEM did not converge for energy
   **   ~~~   ** Check values should be zero. Most Recent values listed first.
   **   ~~~   ** Demand-to-Supply interface energy check value iteration history trace: 1281.025559,1281.025559,1281.025559,1281.025559,1281.025559,1281.025559,1281.025559,1281.025559,1281.025558,1281.025558,
   **   ~~~   ** Supply-to-demand interface deck 1 energy check value iteration history trace: 2208.571512,2208.571512,2208.571512,2208.571512,2208.571512,2208.571512,2208.571512,2208.571512,2208.571512,2208.571512,
   ** Warning ** SimHVAC: Maximum iterations (20) exceeded for all HVAC loops, at ANNUAL, 01/05 08:30 - 08:45
   **   ~~~   ** The solution for one or more of the Air Loop HVAC systems did not appear to converge
   **   ~~~   ** Air System Named = CENTRAL SYSTEM did not converge for mass flow rate
   **   ~~~   ** Check values should be zero. Most Recent values listed first.
   **   ~~~   ** Demand-to-Supply interface mass flow rate check value iteration history trace: 7.863400E-002,7.863400E-002,7.863400E-002,7.863400E-002,7.863400E-002,7.863400E-002,7.863400E-002,7.863400E-002,7.863400E-002,7.863400E-002,
   **   ~~~   ** Supply-to-demand interface deck 1 mass flow rate check value iteration history trace: 7.863400E-002,7.863400E-002,7.863400E-002,7.863400E-002,7.863400E-002,7.863400E-002,7.863400E-002,7.863400E-002,7.863400E-002,7.863400E-002,
   **   ~~~   ** Air System Named = CENTRAL SYSTEM did not converge for energy
   **   ~~~   ** Check values should be zero. Most Recent values listed first.
   **   ~~~   ** Demand-to-Supply interface energy check value iteration history trace: 1558.157862,1558.157862,1558.157862,1558.157862,1558.157862,1558.157862,1558.157862,1558.157861,1558.157861,1558.157861,
   **   ~~~   ** Supply-to-demand interface deck 1 energy check value iteration history trace: 2485.986707,2485.986706,2485.986706,2485.986706,2485.986706,2485.986706,2485.986706,2485.986706,2485.986705,2485.986705,
   ** Warning ** SimHVAC: Maximum iterations (20) exceeded for all HVAC loops, at ANNUAL, 01/07 11:05 - 11:08
   **   ~~~   ** The solution for one or more of the Air Loop HVAC systems did not appear to converge
   **   ~~~   ** Air System Named = CENTRAL SYSTEM did not converge for mass flow rate
   **   ~~~   ** Check values should be zero. Most Recent values listed first.
   **   ~~~   ** Demand-to-Supply interface mass flow rate check value iteration history trace: 5.192844E-002,5.192844E-002,5.192844E-002,5.192844E-002,5.192844E-002,5.192844E-002,5.192844E-002,5.192844E-002,5.192844E-002,5.192844E-002,
   **   ~~~   ** Supply-to-demand interface deck 1 mass flow rate check value iteration history trace: 5.192844E-002,5.192844E-002,5.192844E-002,5.192844E-002,5.192844E-002,5.192844E-002,5.192844E-002,5.192844E-002,5.192844E-002,5.192844E-002,
   **   ~~~   ** Air System Named = CENTRAL SYSTEM did not converge for energy
   **   ~~~   ** Check values should be zero. Most Recent values listed first.
   **   ~~~   ** Demand-to-Supply interface energy check value iteration history trace: 1027.491723,1027.491723,1027.491723,1027.491723,1027.491723,1027.491723,1027.491723,1027.491723,1027.491723,1027.491723,
   **   ~~~   ** Supply-to-demand interface deck 1 energy check value iteration history trace: 1870.803155,1870.803155,1870.803155,1870.803155,1870.803155,1870.803155,1870.803155,1870.803155,1870.803154,1870.803154,
   ** Warning ** SimHVAC: Maximum iterations (20) exceeded for all HVAC loops, at ANNUAL, 01/21 07:45 - 08:00
   **   ~~~   ** The solution for one or more of the Air Loop HVAC systems did not appear to converge
   **   ~~~   ** Air System Named = CENTRAL SYSTEM did not converge for mass flow rate
   **   ~~~   ** Check values should be zero. Most Recent values listed first.
   **   ~~~   ** Demand-to-Supply interface mass flow rate check value iteration history trace: 5.851888E-002,5.851888E-002,5.851888E-002,5.851888E-002,5.851888E-002,5.851888E-002,5.851888E-002,5.851888E-002,5.851888E-002,5.851888E-002,
   **   ~~~   ** Supply-to-demand interface deck 1 mass flow rate check value iteration history trace: 5.851888E-002,5.851888E-002,5.851888E-002,5.851888E-002,5.851888E-002,5.851888E-002,5.851888E-002,5.851888E-002,5.851888E-002,5.851888E-002,
   **   ~~~   ** Air System Named = CENTRAL SYSTEM did not converge for energy
   **   ~~~   ** Check values should be zero. Most Recent values listed first.
   **   ~~~   ** Demand-to-Supply interface energy check value iteration history trace: 1159.612308,1159.612308,1159.612308,1159.612308,1159.612308,1159.612308,1159.612308,1159.612308,1159.612308,1159.612308,
   **   ~~~   ** Supply-to-demand interface deck 1 energy check value iteration history trace: 2013.718632,2013.718632,2013.718632,2013.718632,2013.718632,2013.718632,2013.718632,2013.718632,2013.718632,2013.718632,
   ** Warning ** SimHVAC: Maximum iterations (20) exceeded for all HVAC loops, at ANNUAL, 01/25 08:23 - 08:26
   **   ~~~   ** The solution for one or more of the Air Loop HVAC systems did not appear to converge
   **   ~~~   ** Air System Named = CENTRAL SYSTEM did not converge for mass flow rate
   **   ~~~   ** Check values should be zero. Most Recent values listed first.
   **   ~~~   ** Demand-to-Supply interface mass flow rate check value iteration history trace: 6.411085E-002,6.411085E-002,6.411085E-002,6.411085E-002,6.411085E-002,6.411085E-002,6.411085E-002,6.411085E-002,6.411085E-002,6.411085E-002,
   **   ~~~   ** Supply-to-demand interface deck 1 mass flow rate check value iteration history trace: 6.411085E-002,6.411085E-002,6.411085E-002,6.411085E-002,6.411085E-002,6.411085E-002,6.411085E-002,6.411085E-002,6.411085E-002,6.411085E-002,
   **   ~~~   ** Air System Named = CENTRAL SYSTEM did not converge for energy
   **   ~~~   ** Check values should be zero. Most Recent values listed first.
   **   ~~~   ** Demand-to-Supply interface energy check value iteration history trace: 1259.840933,1259.840933,1259.840933,1259.840933,1259.840933,1259.840933,1259.840933,1259.840933,1259.840933,1259.840933,
   **   ~~~   ** Supply-to-demand interface deck 1 energy check value iteration history trace: 2258.803056,2258.803056,2258.803056,2258.803056,2258.803056,2258.803056,2258.803056,2258.803056,2258.803056,2258.803056,
   ** Warning ** SimHVAC: Maximum iterations (20) exceeded for all HVAC loops, at ANNUAL, 02/18 07:30 - 07:35
   **   ~~~   ** The solution for one or more of the Air Loop HVAC systems did not appear to converge
   **   ~~~   ** Air System Named = CENTRAL SYSTEM did not converge for mass flow rate
   **   ~~~   ** Check values should be zero. Most Recent values listed first.
   **   ~~~   ** Demand-to-Supply interface mass flow rate check value iteration history trace: 5.894760E-002,5.894760E-002,5.894760E-002,5.894760E-002,5.894760E-002,5.894760E-002,5.894760E-002,5.894760E-002,5.894760E-002,5.894760E-002,
   **   ~~~   ** Supply-to-demand interface deck 1 mass flow rate check value iteration history trace: 5.894760E-002,5.894760E-002,5.894760E-002,5.894760E-002,5.894760E-002,5.894760E-002,5.894760E-002,5.894760E-002,5.894760E-002,5.894760E-002,
   **   ~~~   ** Air System Named = CENTRAL SYSTEM did not converge for energy
   **   ~~~   ** Check values should be zero. Most Recent values listed first.
   **   ~~~   ** Demand-to-Supply interface energy check value iteration history trace: 1159.543326,1159.543326,1159.543326,1159.543326,1159.543326,1159.543326,1159.543326,1159.543326,1159.543326,1159.543326,
   **   ~~~   ** Supply-to-demand interface deck 1 energy check value iteration history trace: 2031.075530,2031.075530,2031.075530,2031.075530,2031.075530,2031.075529,2031.075529,2031.075529,2031.075529,2031.075529,
   ** Warning ** SimHVAC: Maximum iterations (20) exceeded for all HVAC loops, at ANNUAL, 03/25 08:51 - 08:52
   **   ~~~   ** The solution for one or more of the Air Loop HVAC systems did not appear to converge
   **   ~~~   ** Air System Named = CENTRAL SYSTEM did not converge for energy
   **   ~~~   ** Check values should be zero. Most Recent values listed first.
   **   ~~~   ** Demand-to-Supply interface energy check value iteration history trace: 71.166605,71.166605,71.166605,71.166605,71.166605,71.166605,71.166605,71.166605,71.166605,71.166605,
   **   ~~~   ** Supply-to-demand interface deck 1 energy check value iteration history trace: 29.704415,29.704415,29.704415,29.704415,29.704415,29.704415,29.704415,29.704415,29.704415,29.704415,
   ** Warning ** SimHVAC: Maximum iterations (20) exceeded for all HVAC loops, at ANNUAL, 03/29 09:55 - 10:00
   **   ~~~   ** The solution for one or more of the Air Loop HVAC systems did not appear to converge
   **   ~~~   ** Air System Named = CENTRAL SYSTEM did not converge for mass flow rate
   **   ~~~   ** Check values should be zero. Most Recent values listed first.
   **   ~~~   ** Demand-to-Supply interface mass flow rate check value iteration history trace: 4.700608E-002,4.700608E-002,4.700608E-002,4.700608E-002,4.700608E-002,4.700608E-002,4.700608E-002,4.700608E-002,4.700608E-002,4.700608E-002,
   **   ~~~   ** Supply-to-demand interface deck 1 mass flow rate check value iteration history trace: 4.700608E-002,4.700608E-002,4.700608E-002,4.700608E-002,4.700608E-002,4.700608E-002,4.700608E-002,4.700608E-002,4.700608E-002,4.700608E-002,
   **   ~~~   ** Air System Named = CENTRAL SYSTEM did not converge for energy
   **   ~~~   ** Check values should be zero. Most Recent values listed first.
   **   ~~~   ** Demand-to-Supply interface energy check value iteration history trace: 1106.539148,1106.539149,1106.539149,1106.539149,1106.539149,1106.539150,1106.539150,1106.539150,1106.539151,1106.539151,
   **   ~~~   ** Supply-to-demand interface deck 1 energy check value iteration history trace: 409.017028,409.017029,409.017029,409.017029,409.017029,409.017029,409.017029,409.017029,409.017029,409.017029,
   ** Warning ** SimHVAC: Maximum iterations (20) exceeded for all HVAC loops, at ANNUAL, 04/15 14:26 - 14:28
   **   ~~~   ** The solution for one or more of the Air Loop HVAC systems did not appear to converge
   **   ~~~   ** Air System Named = CENTRAL SYSTEM did not converge for mass flow rate
   **   ~~~   ** Check values should be zero. Most Recent values listed first.
   **   ~~~   ** Demand-to-Supply interface mass flow rate check value iteration history trace: 0.395980,0.395980,0.395980,0.395980,0.395980,0.395980,0.395980,0.395980,0.395980,0.395980,
   **   ~~~   ** Supply-to-demand interface deck 1 mass flow rate check value iteration history trace: 0.395980,0.395980,0.395980,0.395980,0.395980,0.395980,0.395980,0.395980,0.395980,0.395980,
   **   ~~~   ** Air System Named = CENTRAL SYSTEM did not converge for energy
   **   ~~~   ** Check values should be zero. Most Recent values listed first.
   **   ~~~   ** Demand-to-Supply interface energy check value iteration history trace: 9533.523585,9533.523586,9533.523587,9533.523587,9533.523588,9533.523589,9533.523590,9533.523591,9533.523591,9533.523592,
   **   ~~~   ** Supply-to-demand interface deck 1 energy check value iteration history trace: 3724.551911,3724.551912,3724.551912,3724.551912,3724.551912,3724.551913,3724.551913,3724.551913,3724.551914,3724.551914,
   ** Warning ** SimHVAC: Maximum iterations (20) exceeded for all HVAC loops, at ANNUAL, 04/16 09:59 - 10:00
   **   ~~~   ** The solution for one or more of the Air Loop HVAC systems did not appear to converge
   **   ~~~   ** Air System Named = CENTRAL SYSTEM did not converge for mass flow rate
   **   ~~~   ** Check values should be zero. Most Recent values listed first.
   **   ~~~   ** Demand-to-Supply interface mass flow rate check value iteration history trace: 0.375850,0.375850,0.375850,0.375850,0.375850,0.375850,0.375850,0.375850,0.375850,0.375850,
   **   ~~~   ** Supply-to-demand interface deck 1 mass flow rate check value iteration history trace: 0.375850,0.375850,0.375850,0.375850,0.375850,0.375850,0.375850,0.375850,0.375850,0.375850,
   **   ~~~   ** Air System Named = CENTRAL SYSTEM did not converge for energy
   **   ~~~   ** Check values should be zero. Most Recent values listed first.
   **   ~~~   ** Demand-to-Supply interface energy check value iteration history trace: 8946.010564,8946.010565,8946.010566,8946.010567,8946.010567,8946.010568,8946.010569,8946.010570,8946.010571,8946.010572,
   **   ~~~   ** Supply-to-demand interface deck 1 energy check value iteration history trace: 3974.185881,3974.185881,3974.185882,3974.185882,3974.185882,3974.185883,3974.185883,3974.185884,3974.185884,3974.185884,
   ** Warning ** SimHVAC: Maximum iterations (20) exceeded for all HVAC loops, at ANNUAL, 04/16 10:18 - 10:20
   **   ~~~   ** The solution for one or more of the Air Loop HVAC systems did not appear to converge
   **   ~~~   ** Air System Named = CENTRAL SYSTEM did not converge for mass flow rate
   **   ~~~   ** Check values should be zero. Most Recent values listed first.
   **   ~~~   ** Demand-to-Supply interface mass flow rate check value iteration history trace: 0.346432,0.346432,0.346432,0.346432,0.346432,0.346432,0.346432,0.346432,0.346432,0.346432,
   **   ~~~   ** Supply-to-demand interface deck 1 mass flow rate check value iteration history trace: 0.346432,0.346432,0.346432,0.346432,0.346432,0.346432,0.346432,0.346432,0.346432,0.346432,
   **   ~~~   ** Air System Named = CENTRAL SYSTEM did not converge for energy
   **   ~~~   ** Check values should be zero. Most Recent values listed first.
   **   ~~~   ** Demand-to-Supply interface energy check value iteration history trace: 8264.315051,8264.315052,8264.315052,8264.315053,8264.315054,8264.315055,8264.315055,8264.315056,8264.315057,8264.315058,
   **   ~~~   ** Supply-to-demand interface deck 1 energy check value iteration history trace: 3646.734991,3646.734991,3646.734992,3646.734992,3646.734992,3646.734993,3646.734993,3646.734993,3646.734994,3646.734994,
   ** Warning ** Temperature out of range [-100. to 200.] (PsyPsatFnTemp)
   **   ~~~   **  Routine=PsyTwbFnTdbWPb, Environment=ANNUAL, at Simulation time=11/25 02:00 - 02:15
   **   ~~~   **  Input Temperature=-105.57
   ** Warning ** SimHVAC: Maximum iterations (20) exceeded for all HVAC loops, at ANNUAL, 11/30 06:00 - 06:15
   **   ~~~   ** The solution for one or more of the Air Loop HVAC systems did not appear to converge
   **   ~~~   ** Air System Named = CENTRAL SYSTEM did not converge for mass flow rate
   **   ~~~   ** Check values should be zero. Most Recent values listed first.
   **   ~~~   ** Demand-to-Supply interface mass flow rate check value iteration history trace: 6.894145E-002,6.894145E-002,6.894145E-002,6.894145E-002,6.894145E-002,6.894145E-002,6.894145E-002,6.894145E-002,6.894145E-002,6.894145E-002,
   **   ~~~   ** Supply-to-demand interface deck 1 mass flow rate check value iteration history trace: 6.894145E-002,6.894145E-002,6.894145E-002,6.894145E-002,6.894145E-002,6.894145E-002,6.894145E-002,6.894145E-002,6.894145E-002,6.894145E-002,
   **   ~~~   ** Air System Named = CENTRAL SYSTEM did not converge for energy
   **   ~~~   ** Check values should be zero. Most Recent values listed first.
   **   ~~~   ** Demand-to-Supply interface energy check value iteration history trace: 1365.040201,1365.040201,1365.040201,1365.040201,1365.040201,1365.040201,1365.040200,1365.040200,1365.040200,1365.040200,
   **   ~~~   ** Supply-to-demand interface deck 1 energy check value iteration history trace: 2395.461868,2395.461868,2395.461868,2395.461868,2395.461868,2395.461868,2395.461868,2395.461868,2395.461868,2395.461867,
   ************* Simulation Error Summary *************
   ** Warning ** The following Report Variables were requested but not generated -- check.rdd file
   **   ~~~   ** Either the IDF did not contain these elements, the variable name is misspelled,
   **   ~~~   ** or the requested variable is an advanced output which requires Output : Diagnostics, DisplayAdvancedReportVariables;
   ************* Key=*, VarName=BASEBOARD TOTAL HEATING ENERGY, Frequency=
   ************* Key=*, VarName=WATER HEATER NATURALGAS ENERGY, Frequency=
   ************* Key=*, VarName=COOLING COIL TOTAL HEATING ENERGY, Frequency=
   ************* There are 34 unused schedules in input.
   ************* There are 388 unused week schedules in input.
   ************* There are 396 unused day schedules in input.
   ************* Use Output:Diagnostics,DisplayUnusedSchedules; to see them.
   *************
   ************* ===== Recurring Error Summary =====
   ************* The following recurring error messages occurred.
   *************
   *************  ** Warning ** "TOTAL HOT WATER LOAD" - Target water temperature should be less than or equal to the hot water temperature error continues...
   *************  **   ~~~   **   This error occurred 170365 total times;
   *************  **   ~~~   **   during Warmup 0 times;
   *************  **   ~~~   **   during Sizing 0 times.
   *************  **   ~~~   **   Max=10.959108  Min=2.026248E-003
   *************
   *************  ** Warning ** Temperature out of range [-100. to 200.] (PsyPsatFnTemp)
   *************  **   ~~~   **   This error occurred 2 total times;
   *************  **   ~~~   **   during Warmup 0 times;
   *************  **   ~~~   **   during Sizing 0 times.
   *************  **   ~~~   **   Max=-101.999252 C  Min=-105.570145 C
   *************
   *************  ** Warning ** SimHVAC: Exceeding Maximum iterations for all HVAC loops, during ANNUAL continues
   *************  **   ~~~   **   This error occurred 6 total times;
   *************  **   ~~~   **   during Warmup 0 times;
   *************  **   ~~~   **   during Sizing 0 times.
   *************
   *************
   ************* ===== Final Error Summary =====
   ************* The following error categories occurred.  Consider correcting or noting.
   ************* Nominally Unused Constructions
   ************* ..The nominally unused constructions warning is provided to alert you to potential conditions that can cause
   ************* ..extra time during simulation. Each construction is calculated by the algorithm indicated in the HeatBalanceAlgorithm
   ************* ..object. You may remove the constructions indicated (when you use the DisplayExtraWarnings option).
   *************
   ************* EnergyPlus Warmup Error Summary. During Warmup: 0 Warning; 0 Severe Errors.
   ************* EnergyPlus Sizing Error Summary. During Sizing: 4 Warning; 0 Severe Errors.
   ************* EnergyPlus Completed Successfully-- 170405 Warning; 0 Severe Errors; Elapsed Time=00hr 01min 51.02sec
