Program Version,EnergyPlus, Version 22.2.0-c249759bad, YMD=2023.09.01 18:51,
   ************* Beginning Zone Sizing Calculations
   ** Warning ** ProcessScheduleInput: Schedule:Constant="ALWAYS ON DISCRETE", Schedule Type Limits Name="ONOFF" not found -- will not be validated
   ** Warning ** Foundation:Kiva="KIVA FOUNDATION", no Interior Horizontal Insulation Material Name defined
   **   ~~~   ** Interior Horizontal Insulation Depth will not be used.
   ** Warning ** CheckUsedConstructions: There are 15 nominally unused constructions in input.
   **   ~~~   ** Each Unused construction is shown.
   ************* Construction=INTERIOR FLOOR
   ************* Construction=INTERIOR WINDOW
   ************* Construction=EXTERIOR DOOR
   ************* Construction=INTERIOR DOOR
   ************* Construction=GABLE CONSTRUCTION
   ************* Construction=CRAWL_FLOOR
   ************* Construction=INSULATED PIPE
   ************* Construction=PLAIN PIPE
   ************* Construction=TDD PIPE
   ************* Construction=TDD DOME
   ************* Construction=TDD DIFFUSER
   ************* Construction=CRAWL WALL
   ************* Construction=CEILING-FLOOR-LAYER
   ************* Construction=SLAB CONSTRUCTION W FULL R10 INSULATION
   ************* Construction=SLAB CONSTRUCTION W FULL R5 INSULATION
   ** Warning ** GetDXCoils: Coil:Heating:DX:SingleSpeed="DX_HEATING_COIL" curve values
   **   ~~~   ** ... Defrost Energy Input Ratio Function of Temperature Curve Name = DEFROSTEIR output is not equal to 1.0 (+ or - 10%) at rated conditions.
   **   ~~~   ** ... Curve output at rated conditions = 0.152
   ************* Beginning System Sizing Calculations
   ************* Beginning Plant Sizing Calculations
   ** Warning ** SizeDXCoil Coil:Cooling:DX:SingleSpeed DX_COOLING_COIL
   **   ~~~   ** ...Gross Rated Total Cooling Capacity [W] will be limited by the maximum rated volume flow per rated total capacity ratio.
   **   ~~~   ** ...DX coil volume flow rate ( m3/s ) = 0.461296
   **   ~~~   ** ...Requested capacity ( W ) = 7110.480
   **   ~~~   ** ...Requested flow/capacity ratio ( m3/s/W ) = 6.487E-005
   **   ~~~   ** ...Maximum flow/capacity ratio ( m3/s/W ) = 6.041E-005
   **   ~~~   ** ...Adjusted capacity ( W ) = 7636.098
   ** Warning ** Coil:WaterHeating:AirToWaterHeatPump:Wrapped "HEAT PUMP WATER HEATER EVAPORATOR": Rated air volume flow rate per watt of rated total water heating capacity is out of range
   **   ~~~   ** Min Rated Vol Flow Per Watt=[4.027E-005], Rated Vol Flow Per Watt=[1.510E-004], Max Rated Vol Flow Per Watt=[8.056E-005]. See Input-Output Reference Manual for valid range.
   ************* SizeFan: : Potential issue with equipment sizing for Fan:OnOff HEAT PUMP WATER HEATER FAN
   **   ~~~   ** User-Specified Maximum Flow Rate [m3/s] = 0.22653
   **   ~~~   ** differs from Design Size Maximum Flow Rate [m3/s] = 7.55250E-002
   **   ~~~   ** This may, or may not, indicate mismatched component sizes.
   **   ~~~   ** Verify that the value entered is intended and is consistent with other components.
   ** Warning ** Water heater = WATER HEATER TANK:  Recovery Efficiency and Energy Factor could not be calculated during the test for standard ratings
   **   ~~~   ** Setpoint was never recovered and/or heater never turned on
   ** Warning ** Check input. Pump nominal power or motor efficiency is set to 0, for pump=MAINS PRESSURE
   ** Warning ** Output:Meter: invalid Key Name="ELECTRIC_RANGE:INTERIOREQUIPMENT:ELECTRICITY" - not found.
   ** Warning ** Output:Meter: invalid Key Name="ELECTRIC_DRYER:INTERIOREQUIPMENT:ELECTRICITY" - not found.
   ** Warning ** Output:Meter: invalid Key Name="HEATRECOVERY:ELECTRICITY" - not found.
   ** Warning ** Output:Meter: invalid Key Name="HEATING:NATURALGAS" - not found.
   ** Warning ** Output:Meter: invalid Key Name="WATERSYSTEMS:NATURALGAS" - not found.
   ** Warning ** Output:Meter: invalid Key Name="PROPANE:FACILITY" - not found.
   ** Warning ** Output:Meter: invalid Key Name="HEATING:PROPANE" - not found.
   ************* Testing Individual Branch Integrity
   ************* All Branches passed integrity testing
   ************* Testing Individual Supply Air Path Integrity
   ************* All Supply Air Paths passed integrity testing
   ************* Testing Individual Return Air Path Integrity
   ************* All Return Air Paths passed integrity testing
   ************* No node connection errors were found.
   ************* Beginning Simulation
   ** Warning ** AirflowNetwork::Solver::validate_distribution: Heat pump water heater is simulated along with an AirflowNetwork but is not included in the AirflowNetwork.
   ** Warning ** CalcEquipmentFlowRates: "TOTAL HOT WATER LOAD" - Target water temperature is greater than the hot water temperature by (1.79 C)
   **   ~~~   **  Environment=EXTREME_WINTER, at Simulation time=02/15 03:45 - 04:00
   **   ~~~   ** ...target water temperature     = 53.33 C
   **   ~~~   ** ...hot water temperature        = 51.54 C
   **   ~~~   ** ...Target water temperature should be less than or equal to the hot water temperature. Verify temperature setpoints and schedules.
   ** Warning ** SimHVAC: Maximum iterations (20) exceeded for all HVAC loops, at EXTREME_WINTER, 02/21 03:30 - 03:45
   **   ~~~   ** The solution for one or more of the Air Loop HVAC systems did not appear to converge
   **   ~~~   ** Air System Named = CENTRAL SYSTEM did not converge for mass flow rate
   **   ~~~   ** Check values should be zero. Most Recent values listed first.
   **   ~~~   ** Demand-to-Supply interface mass flow rate check value iteration history trace: 5.773750E-002,5.773750E-002,5.773750E-002,5.773750E-002,5.773750E-002,5.773750E-002,5.773750E-002,5.773750E-002,5.773750E-002,5.773750E-002,
   **   ~~~   ** Supply-to-demand interface deck 1 mass flow rate check value iteration history trace: 5.773750E-002,5.773750E-002,5.773750E-002,5.773750E-002,5.773750E-002,5.773750E-002,5.773750E-002,5.773750E-002,5.773750E-002,5.773750E-002,
   **   ~~~   ** Air System Named = CENTRAL SYSTEM did not converge for energy
   **   ~~~   ** Check values should be zero. Most Recent values listed first.
   **   ~~~   ** Demand-to-Supply interface energy check value iteration history trace: 1075.122111,1075.122111,1075.122111,1075.122111,1075.122111,1075.122111,1075.122111,1075.122111,1075.122111,1075.122111,
   **   ~~~   ** Supply-to-demand interface deck 1 energy check value iteration history trace: 1852.660233,1852.660233,1852.660233,1852.660233,1852.660233,1852.660233,1852.660233,1852.660233,1852.660233,1852.660233,
   ** Warning ** SimHVAC: Maximum iterations (20) exceeded for all HVAC loops, at EXTREME_SUMMER, 10/02 02:08 - 02:15
   **   ~~~   ** The solution for one or more of the Air Loop HVAC systems did not appear to converge
   **   ~~~   ** Air System Named = CENTRAL SYSTEM did not converge for energy
   **   ~~~   ** Check values should be zero. Most Recent values listed first.
   **   ~~~   ** Demand-to-Supply interface energy check value iteration history trace: 220.193985,220.193985,220.193985,220.193986,220.193986,220.193986,220.193986,220.193986,220.193986,220.193986,
   **   ~~~   ** Supply-to-demand interface deck 1 energy check value iteration history trace: 104.416697,104.416697,104.416697,104.416697,104.416697,104.416697,104.416697,104.416697,104.416697,104.416698,
   ** Severe  ** CheckWarmupConvergence: Loads Initialization, Zone="LIVING" did not converge after 25 warmup days.
   **   ~~~   ** See Warmup Convergence Information in .eio file for details.
   **   ~~~   ** ...Environment(RunPeriod)="ANNUAL"
   **   ~~~   ** ..Max Temp Comparison = 2.26E-004 vs Temperature Convergence Tolerance=5.00E-002 - Pass Convergence
   **   ~~~   ** ..Min Temp Comparison = 6.82E-003 vs Temperature Convergence Tolerance=5.00E-002 - Pass Convergence
   **   ~~~   ** ..Max Heat Load Comparison = 0.1185 vs Loads Convergence Tolerance=5.00E-002 - Fail Convergence
   **   ~~~   ** ..Max Cool Load Comparison = 7.8419E-002 vs Loads Convergence Tolerance=5.00E-002 - Fail Convergence
   ** Severe  ** CheckWarmupConvergence: Loads Initialization, Zone="ATTIC" did not converge after 25 warmup days.
   **   ~~~   ** ...Environment(RunPeriod)="ANNUAL"
   **   ~~~   ** ..Max Temp Comparison = 7.64E-002 vs Temperature Convergence Tolerance=5.00E-002 - Fail Convergence
   **   ~~~   ** ..Min Temp Comparison = 3.83E-002 vs Temperature Convergence Tolerance=5.00E-002 - Pass Convergence
   **   ~~~   ** ..Max Heat Load Comparison = 0.0000 vs Loads Convergence Tolerance=5.00E-002 - Pass Convergence
   **   ~~~   ** ..Max Cool Load Comparison = 0.0000 vs Loads Convergence Tolerance=5.00E-002 - Pass Convergence
   ** Warning ** SimHVAC: Maximum iterations (20) exceeded for all HVAC loops, at ANNUAL, 01/27 05:45 - 06:00
   **   ~~~   ** The solution for one or more of the Air Loop HVAC systems did not appear to converge
   **   ~~~   ** Air System Named = CENTRAL SYSTEM did not converge for mass flow rate
   **   ~~~   ** Check values should be zero. Most Recent values listed first.
   **   ~~~   ** Demand-to-Supply interface mass flow rate check value iteration history trace: 5.453235E-002,5.453235E-002,5.453235E-002,5.453235E-002,5.453235E-002,5.453235E-002,5.453235E-002,5.453235E-002,5.453235E-002,5.453235E-002,
   **   ~~~   ** Supply-to-demand interface deck 1 mass flow rate check value iteration history trace: 5.453235E-002,5.453235E-002,5.453235E-002,5.453235E-002,5.453235E-002,5.453235E-002,5.453235E-002,5.453235E-002,5.453235E-002,5.453235E-002,
   **   ~~~   ** Air System Named = CENTRAL SYSTEM did not converge for energy
   **   ~~~   ** Check values should be zero. Most Recent values listed first.
   **   ~~~   ** Demand-to-Supply interface energy check value iteration history trace: 1080.016127,1080.016127,1080.016127,1080.016127,1080.016126,1080.016126,1080.016126,1080.016126,1080.016126,1080.016126,
   **   ~~~   ** Supply-to-demand interface deck 1 energy check value iteration history trace: 1857.380564,1857.380564,1857.380564,1857.380564,1857.380564,1857.380564,1857.380564,1857.380564,1857.380564,1857.380563,
   ** Warning ** SimHVAC: Maximum iterations (20) exceeded for all HVAC loops, at ANNUAL, 03/01 07:45 - 08:00
   **   ~~~   ** The solution for one or more of the Air Loop HVAC systems did not appear to converge
   **   ~~~   ** Air System Named = CENTRAL SYSTEM did not converge for mass flow rate
   **   ~~~   ** Check values should be zero. Most Recent values listed first.
   **   ~~~   ** Demand-to-Supply interface mass flow rate check value iteration history trace: 8.755679E-002,8.755679E-002,8.755679E-002,8.755679E-002,8.755679E-002,8.755679E-002,8.755679E-002,8.755679E-002,8.755679E-002,8.755679E-002,
   **   ~~~   ** Supply-to-demand interface deck 1 mass flow rate check value iteration history trace: 8.755679E-002,8.755679E-002,8.755679E-002,8.755679E-002,8.755679E-002,8.755679E-002,8.755679E-002,8.755679E-002,8.755679E-002,8.755679E-002,
   **   ~~~   ** Air System Named = CENTRAL SYSTEM did not converge for energy
   **   ~~~   ** Check values should be zero. Most Recent values listed first.
   **   ~~~   ** Demand-to-Supply interface energy check value iteration history trace: 1735.407617,1735.407617,1735.407617,1735.407617,1735.407617,1735.407617,1735.407617,1735.407616,1735.407616,1735.407616,
   **   ~~~   ** Supply-to-demand interface deck 1 energy check value iteration history trace: 2690.429921,2690.429921,2690.429921,2690.429921,2690.429921,2690.429920,2690.429920,2690.429920,2690.429920,2690.429920,
   ** Warning ** SimHVAC: Maximum iterations (20) exceeded for all HVAC loops, at ANNUAL, 03/09 08:19 - 08:22
   **   ~~~   ** The solution for one or more of the Air Loop HVAC systems did not appear to converge
   **   ~~~   ** Air System Named = CENTRAL SYSTEM did not converge for mass flow rate
   **   ~~~   ** Check values should be zero. Most Recent values listed first.
   **   ~~~   ** Demand-to-Supply interface mass flow rate check value iteration history trace: 6.249998E-002,6.249998E-002,6.249998E-002,6.249998E-002,6.249998E-002,6.249998E-002,6.249998E-002,6.249998E-002,6.249998E-002,6.249998E-002,
   **   ~~~   ** Supply-to-demand interface deck 1 mass flow rate check value iteration history trace: 6.249998E-002,6.249998E-002,6.249998E-002,6.249998E-002,6.249998E-002,6.249998E-002,6.249998E-002,6.249998E-002,6.249998E-002,6.249998E-002,
   **   ~~~   ** Air System Named = CENTRAL SYSTEM did not converge for energy
   **   ~~~   ** Check values should be zero. Most Recent values listed first.
   **   ~~~   ** Demand-to-Supply interface energy check value iteration history trace: 1238.283329,1238.283329,1238.283329,1238.283329,1238.283329,1238.283329,1238.283329,1238.283328,1238.283328,1238.283328,
   **   ~~~   ** Supply-to-demand interface deck 1 energy check value iteration history trace: 2132.886784,2132.886784,2132.886784,2132.886784,2132.886784,2132.886783,2132.886783,2132.886783,2132.886783,2132.886783,
   ** Warning ** SimHVAC: Maximum iterations (20) exceeded for all HVAC loops, at ANNUAL, 03/20 07:55 - 08:00
   **   ~~~   ** The solution for one or more of the Air Loop HVAC systems did not appear to converge
   **   ~~~   ** Air System Named = CENTRAL SYSTEM did not converge for mass flow rate
   **   ~~~   ** Check values should be zero. Most Recent values listed first.
   **   ~~~   ** Demand-to-Supply interface mass flow rate check value iteration history trace: 5.191298E-002,5.191298E-002,5.191298E-002,5.191298E-002,5.191298E-002,5.191298E-002,5.191298E-002,5.191298E-002,5.191298E-002,5.191298E-002,
   **   ~~~   ** Supply-to-demand interface deck 1 mass flow rate check value iteration history trace: 5.191298E-002,5.191298E-002,5.191298E-002,5.191298E-002,5.191298E-002,5.191298E-002,5.191298E-002,5.191298E-002,5.191298E-002,5.191298E-002,
   **   ~~~   ** Air System Named = CENTRAL SYSTEM did not converge for energy
   **   ~~~   ** Check values should be zero. Most Recent values listed first.
   **   ~~~   ** Demand-to-Supply interface energy check value iteration history trace: 1020.677574,1020.677574,1020.677574,1020.677574,1020.677574,1020.677574,1020.677574,1020.677574,1020.677574,1020.677574,
   **   ~~~   ** Supply-to-demand interface deck 1 energy check value iteration history trace: 1849.609369,1849.609369,1849.609369,1849.609369,1849.609369,1849.609369,1849.609369,1849.609369,1849.609368,1849.609368,
   ** Warning ** SimHVAC: Maximum iterations (20) exceeded for all HVAC loops, at ANNUAL, 04/08 18:50 - 18:55
   **   ~~~   ** The solution for one or more of the Air Loop HVAC systems did not appear to converge
   **   ~~~   ** Air System Named = CENTRAL SYSTEM did not converge for mass flow rate
   **   ~~~   ** Check values should be zero. Most Recent values listed first.
   **   ~~~   ** Demand-to-Supply interface mass flow rate check value iteration history trace: 5.294562E-002,5.294562E-002,5.294562E-002,5.294562E-002,5.294562E-002,5.294562E-002,5.294562E-002,5.294562E-002,5.294562E-002,5.294562E-002,
   **   ~~~   ** Supply-to-demand interface deck 1 mass flow rate check value iteration history trace: 5.294562E-002,5.294562E-002,5.294562E-002,5.294562E-002,5.294562E-002,5.294562E-002,5.294562E-002,5.294562E-002,5.294562E-002,5.294562E-002,
   **   ~~~   ** Air System Named = CENTRAL SYSTEM did not converge for energy
   **   ~~~   ** Check values should be zero. Most Recent values listed first.
   **   ~~~   ** Demand-to-Supply interface energy check value iteration history trace: 1251.240343,1251.240343,1251.240343,1251.240343,1251.240343,1251.240344,1251.240344,1251.240344,1251.240344,1251.240344,
   **   ~~~   ** Supply-to-demand interface deck 1 energy check value iteration history trace: 466.530479,466.530479,466.530479,466.530479,466.530479,466.530479,466.530479,466.530479,466.530479,466.530479,
   ** Warning ** SimHVAC: Maximum iterations (20) exceeded for all HVAC loops, at ANNUAL, 04/08 19:53 - 20:00
   **   ~~~   ** The solution for one or more of the Air Loop HVAC systems did not appear to converge
   **   ~~~   ** Air System Named = CENTRAL SYSTEM did not converge for mass flow rate
   **   ~~~   ** Check values should be zero. Most Recent values listed first.
   **   ~~~   ** Demand-to-Supply interface mass flow rate check value iteration history trace: 0.115220,0.115220,0.115220,0.115220,0.115220,0.115220,0.115220,0.115220,0.115220,0.115220,
   **   ~~~   ** Supply-to-demand interface deck 1 mass flow rate check value iteration history trace: 0.115220,0.115220,0.115220,0.115220,0.115220,0.115220,0.115220,0.115220,0.115220,0.115220,
   **   ~~~   ** Air System Named = CENTRAL SYSTEM did not converge for energy
   **   ~~~   ** Check values should be zero. Most Recent values listed first.
   **   ~~~   ** Demand-to-Supply interface energy check value iteration history trace: 2730.578143,2730.578143,2730.578143,2730.578144,2730.578144,2730.578144,2730.578144,2730.578144,2730.578144,2730.578145,
   **   ~~~   ** Supply-to-demand interface deck 1 energy check value iteration history trace: 1024.071217,1024.071217,1024.071217,1024.071217,1024.071217,1024.071218,1024.071218,1024.071218,1024.071218,1024.071218,
   ** Warning ** SimHVAC: Maximum iterations (20) exceeded for all HVAC loops, at ANNUAL, 11/13 05:45 - 06:00
   **   ~~~   ** The solution for one or more of the Air Loop HVAC systems did not appear to converge
   **   ~~~   ** Air System Named = CENTRAL SYSTEM did not converge for mass flow rate
   **   ~~~   ** Check values should be zero. Most Recent values listed first.
   **   ~~~   ** Demand-to-Supply interface mass flow rate check value iteration history trace: 6.678622E-002,6.678622E-002,6.678622E-002,6.678622E-002,6.678622E-002,6.678622E-002,6.678622E-002,6.678622E-002,6.678622E-002,6.678622E-002,
   **   ~~~   ** Supply-to-demand interface deck 1 mass flow rate check value iteration history trace: 6.678622E-002,6.678622E-002,6.678622E-002,6.678622E-002,6.678622E-002,6.678622E-002,6.678622E-002,6.678622E-002,6.678622E-002,6.678622E-002,
   **   ~~~   ** Air System Named = CENTRAL SYSTEM did not converge for energy
   **   ~~~   ** Check values should be zero. Most Recent values listed first.
   **   ~~~   ** Demand-to-Supply interface energy check value iteration history trace: 1322.815246,1322.815246,1322.815246,1322.815246,1322.815246,1322.815246,1322.815246,1322.815246,1322.815246,1322.815245,
   **   ~~~   ** Supply-to-demand interface deck 1 energy check value iteration history trace: 2301.755238,2301.755238,2301.755238,2301.755238,2301.755238,2301.755237,2301.755237,2301.755237,2301.755237,2301.755237,
   ** Warning ** SimHVAC: Maximum iterations (20) exceeded for all HVAC loops, at ANNUAL, 12/03 10:06 - 10:09
   **   ~~~   ** The solution for one or more of the Air Loop HVAC systems did not appear to converge
   **   ~~~   ** Air System Named = CENTRAL SYSTEM did not converge for mass flow rate
   **   ~~~   ** Check values should be zero. Most Recent values listed first.
   **   ~~~   ** Demand-to-Supply interface mass flow rate check value iteration history trace: 0.386512,0.386512,0.386512,0.386512,0.386512,0.386512,0.386512,0.386512,0.386512,0.386512,
   **   ~~~   ** Supply-to-demand interface deck 1 mass flow rate check value iteration history trace: 0.386512,0.386512,0.386512,0.386512,0.386512,0.386512,0.386512,0.386512,0.386512,0.386512,
   **   ~~~   ** Air System Named = CENTRAL SYSTEM did not converge for energy
   **   ~~~   ** Check values should be zero. Most Recent values listed first.
   **   ~~~   ** Demand-to-Supply interface energy check value iteration history trace: 9229.719793,9229.719794,9229.719794,9229.719795,9229.719795,9229.719796,9229.719797,9229.719797,9229.719798,9229.719798,
   **   ~~~   ** Supply-to-demand interface deck 1 energy check value iteration history trace: 4334.017878,4334.017878,4334.017879,4334.017879,4334.017879,4334.017879,4334.017879,4334.017880,4334.017880,4334.017880,
   ** Warning ** SimHVAC: Maximum iterations (20) exceeded for all HVAC loops, at ANNUAL, 12/03 10:45 - 11:00
   **   ~~~   ** The solution for one or more of the Air Loop HVAC systems did not appear to converge
   **   ~~~   ** Air System Named = CENTRAL SYSTEM did not converge for mass flow rate
   **   ~~~   ** Check values should be zero. Most Recent values listed first.
   **   ~~~   ** Demand-to-Supply interface mass flow rate check value iteration history trace: 0.119643,0.119643,0.119643,0.119643,0.119643,0.119643,0.119643,0.119643,0.119643,0.119643,
   **   ~~~   ** Supply-to-demand interface deck 1 mass flow rate check value iteration history trace: 0.119643,0.119643,0.119643,0.119643,0.119643,0.119643,0.119643,0.119643,0.119643,0.119643,
   **   ~~~   ** Air System Named = CENTRAL SYSTEM did not converge for energy
   **   ~~~   ** Check values should be zero. Most Recent values listed first.
   **   ~~~   ** Demand-to-Supply interface energy check value iteration history trace: 2842.632963,2842.632963,2842.632963,2842.632964,2842.632964,2842.632964,2842.632964,2842.632965,2842.632965,2842.632965,
   **   ~~~   ** Supply-to-demand interface deck 1 energy check value iteration history trace: 1330.716086,1330.716086,1330.716086,1330.716086,1330.716086,1330.716086,1330.716086,1330.716086,1330.716087,1330.716087,
   ** Warning ** SimHVAC: Maximum iterations (20) exceeded for all HVAC loops, at ANNUAL, 12/15 08:15 - 08:30
   **   ~~~   ** The solution for one or more of the Air Loop HVAC systems did not appear to converge
   **   ~~~   ** Air System Named = CENTRAL SYSTEM did not converge for mass flow rate
   **   ~~~   ** Check values should be zero. Most Recent values listed first.
   **   ~~~   ** Demand-to-Supply interface mass flow rate check value iteration history trace: 6.221588E-002,6.221588E-002,6.221588E-002,6.221588E-002,6.221588E-002,6.221588E-002,6.221588E-002,6.221588E-002,6.221588E-002,6.221588E-002,
   **   ~~~   ** Supply-to-demand interface deck 1 mass flow rate check value iteration history trace: 6.221588E-002,6.221588E-002,6.221588E-002,6.221588E-002,6.221588E-002,6.221588E-002,6.221588E-002,6.221588E-002,6.221588E-002,6.221588E-002,
   **   ~~~   ** Air System Named = CENTRAL SYSTEM did not converge for energy
   **   ~~~   ** Check values should be zero. Most Recent values listed first.
   **   ~~~   ** Demand-to-Supply interface energy check value iteration history trace: 1232.834460,1232.834460,1232.834460,1232.834460,1232.834460,1232.834460,1232.834460,1232.834460,1232.834459,1232.834459,
   **   ~~~   ** Supply-to-demand interface deck 1 energy check value iteration history trace: 2146.469873,2146.469873,2146.469873,2146.469873,2146.469872,2146.469872,2146.469872,2146.469872,2146.469872,2146.469872,
   ** Warning ** SimHVAC: Maximum iterations (20) exceeded for all HVAC loops, at ANNUAL, 12/15 09:02 - 09:05
   **   ~~~   ** The solution for one or more of the Air Loop HVAC systems did not appear to converge
   **   ~~~   ** Air System Named = CENTRAL SYSTEM did not converge for mass flow rate
   **   ~~~   ** Check values should be zero. Most Recent values listed first.
   **   ~~~   ** Demand-to-Supply interface mass flow rate check value iteration history trace: 5.614401E-002,5.614401E-002,5.614401E-002,5.614401E-002,5.614401E-002,5.614401E-002,5.614401E-002,5.614401E-002,5.614401E-002,5.614401E-002,
   **   ~~~   ** Supply-to-demand interface deck 1 mass flow rate check value iteration history trace: 5.614401E-002,5.614401E-002,5.614401E-002,5.614401E-002,5.614401E-002,5.614401E-002,5.614401E-002,5.614401E-002,5.614401E-002,5.614401E-002,
   **   ~~~   ** Air System Named = CENTRAL SYSTEM did not converge for energy
   **   ~~~   ** Check values should be zero. Most Recent values listed first.
   **   ~~~   ** Demand-to-Supply interface energy check value iteration history trace: 1109.372157,1109.372157,1109.372157,1109.372157,1109.372157,1109.372157,1109.372157,1109.372157,1109.372157,1109.372156,
   **   ~~~   ** Supply-to-demand interface deck 1 energy check value iteration history trace: 1998.029534,1998.029534,1998.029534,1998.029533,1998.029533,1998.029533,1998.029533,1998.029533,1998.029533,1998.029533,
   ** Warning ** SimHVAC: Maximum iterations (20) exceeded for all HVAC loops, at ANNUAL, 12/18 06:30 - 06:45
   **   ~~~   ** The solution for one or more of the Air Loop HVAC systems did not appear to converge
   **   ~~~   ** Air System Named = CENTRAL SYSTEM did not converge for mass flow rate
   **   ~~~   ** Check values should be zero. Most Recent values listed first.
   **   ~~~   ** Demand-to-Supply interface mass flow rate check value iteration history trace: 6.995726E-002,6.995726E-002,6.995726E-002,6.995726E-002,6.995726E-002,6.995726E-002,6.995726E-002,6.995726E-002,6.995726E-002,6.995726E-002,
   **   ~~~   ** Supply-to-demand interface deck 1 mass flow rate check value iteration history trace: 6.995726E-002,6.995726E-002,6.995726E-002,6.995726E-002,6.995726E-002,6.995726E-002,6.995726E-002,6.995726E-002,6.995726E-002,6.995726E-002,
   **   ~~~   ** Air System Named = CENTRAL SYSTEM did not converge for energy
   **   ~~~   ** Check values should be zero. Most Recent values listed first.
   **   ~~~   ** Demand-to-Supply interface energy check value iteration history trace: 1384.053381,1384.053381,1384.053381,1384.053381,1384.053380,1384.053380,1384.053380,1384.053380,1384.053380,1384.053380,
   **   ~~~   ** Supply-to-demand interface deck 1 energy check value iteration history trace: 2412.937438,2412.937437,2412.937437,2412.937437,2412.937437,2412.937437,2412.937437,2412.937437,2412.937437,2412.937437,
   ************* Simulation Error Summary *************
   ** Warning ** The following Report Variables were requested but not generated -- check.rdd file
   **   ~~~   ** Either the IDF did not contain these elements, the variable name is misspelled,
   **   ~~~   ** or the requested variable is an advanced output which requires Output : Diagnostics, DisplayAdvancedReportVariables;
   ************* Key=*, VarName=BASEBOARD TOTAL HEATING ENERGY, Frequency=
   ************* Key=*, VarName=WATER HEATER NATURALGAS ENERGY, Frequency=
   ************* Key=*, VarName=COOLING COIL TOTAL HEATING ENERGY, Frequency=
   ************* There are 34 unused schedules in input.
   ************* There are 388 unused week schedules in input.
   ************* There are 396 unused day schedules in input.
   ************* Use Output:Diagnostics,DisplayUnusedSchedules; to see them.
   *************
   ************* ===== Recurring Error Summary =====
   ************* The following recurring error messages occurred.
   *************
   *************  ** Warning ** "TOTAL HOT WATER LOAD" - Target water temperature should be less than or equal to the hot water temperature error continues...
   *************  **   ~~~   **   This error occurred 84499 total times;
   *************  **   ~~~   **   during Warmup 0 times;
   *************  **   ~~~   **   during Sizing 0 times.
   *************  **   ~~~   **   Max=6.50484  Min=1.804353E-005
   *************
   *************  ** Warning ** SimHVAC: Exceeding Maximum iterations for all HVAC loops, during ANNUAL continues
   *************  **   ~~~   **   This error occurred 6 total times;
   *************  **   ~~~   **   during Warmup 0 times;
   *************  **   ~~~   **   during Sizing 0 times.
   *************
   *************
   ************* ===== Final Error Summary =====
   ************* The following error categories occurred.  Consider correcting or noting.
   ************* Loads Initialization did not Converge
   ************* ..1) very high thermal mass such as very thick concrete (solution: increase max number of warmup
   ************* ..   days in the BUILDING object);
   ************* ..2) moderate mass and inadequate space conditioning such that the building keeps getting warmer
   ************* ..   and warmer on successive days (solution: add HVAC, check building thermal properties,
   ************* ..   check if infiltration is included, make sure HVAC properly controlled);
   ************* ..3) a soil layer modeled below the concrete slab - (solution remove this layer and read about
   ************* ..   ground temperatures in the Auxiliary Programs document).
   ************* ..4) unreasonable (too small) limits in the BUILDING object for temperature (.4 default) or
   ************* ..   loads tolerances (.04 default)
   ************* Nominally Unused Constructions
   ************* ..The nominally unused constructions warning is provided to alert you to potential conditions that can cause
   ************* ..extra time during simulation. Each construction is calculated by the algorithm indicated in the HeatBalanceAlgorithm
   ************* ..object. You may remove the constructions indicated (when you use the DisplayExtraWarnings option).
   *************
   ************* EnergyPlus Warmup Error Summary. During Warmup: 1 Warning; 2 Severe Errors.
   ************* EnergyPlus Sizing Error Summary. During Sizing: 4 Warning; 0 Severe Errors.
   ************* EnergyPlus Completed Successfully-- 84537 Warning; 2 Severe Errors; Elapsed Time=00hr 02min  1.32sec
