Program Version,EnergyPlus, Version 22.2.0-c249759bad, YMD=2023.07.25 20:08,
   ************* Beginning Zone Sizing Calculations
   ** Warning ** Foundation:Kiva="KIVA FOUNDATION", no Interior Horizontal Insulation Material Name defined
   **   ~~~   ** Interior Horizontal Insulation Depth will not be used.
   ** Warning ** CheckUsedConstructions: There are 15 nominally unused constructions in input.
   **   ~~~   ** Each Unused construction is shown.
   ************* Construction=INTERIOR FLOOR
   ************* Construction=INTERIOR WINDOW
   ************* Construction=EXTERIOR DOOR
   ************* Construction=INTERIOR DOOR
   ************* Construction=GABLE CONSTRUCTION
   ************* Construction=CRAWL_FLOOR
   ************* Construction=INSULATED PIPE
   ************* Construction=PLAIN PIPE
   ************* Construction=TDD PIPE
   ************* Construction=TDD DOME
   ************* Construction=TDD DIFFUSER
   ************* Construction=CRAWL WALL
   ************* Construction=CEILING-FLOOR-LAYER
   ************* Construction=SLAB CONSTRUCTION W FULL R10 INSULATION
   ************* Construction=SLAB CONSTRUCTION W FULL R5 INSULATION
   ************* Beginning System Sizing Calculations
   ** Warning ** ManageSizing: For a plant sizing run, there must be at least 1 Sizing:Plant object input. SimulationControl Plant Sizing option ignored.
   ************* SizeHVACSingleDuct: Potential issue with equipment sizing for AirTerminal:SingleDuct:ConstantVolume:NoReheat = "ZONEDIRECTAIR".
   **   ~~~   ** User-Specified Maximum Air Flow Rate of 0.45112 [m3/s]
   **   ~~~   ** differs from Design Size Maximum Air Flow Rate of 0.91263 [m3/s]
   **   ~~~   ** This may, or may not, indicate mismatched component sizes.
   **   ~~~   ** Verify that the value entered is intended and is consistent with other components.
   ************* SizeDXCoil: Potential issue with equipment sizing for Coil:Cooling:DX:SingleSpeed DX_COOLING_COIL
   **   ~~~   ** User-Specified Rated Air Flow Rate [m3/s] = 0.45112
   **   ~~~   ** differs from Design Size Rated Air Flow Rate [m3/s] = 0.91263
   **   ~~~   ** This may, or may not, indicate mismatched component sizes.
   **   ~~~   ** Verify that the value entered is intended and is consistent with other components.
   ************* SizeDXCoil: Potential issue with equipment sizing for Coil:Cooling:DX:SingleSpeed DX_COOLING_COIL
   **   ~~~   ** User-Specified Gross Rated Total Cooling Capacity [W] = 10550.55853
   **   ~~~   ** differs from Design Size Gross Rated Total Cooling Capacity [W] = 6590.28643
   **   ~~~   ** This may, or may not, indicate mismatched component sizes.
   **   ~~~   ** Verify that the value entered is intended and is consistent with other components.
   ** Warning ** The Standard Ratings is calculated for Coil:Cooling:DX:SingleSpeed = DX_COOLING_COIL but not at the AHRI test condition due to curve out of bound.
   **   ~~~   **  Review the Standard Ratings calculations in the Engineering Reference for this coil type. Also, use Output:Diagnostics, DisplayExtraWarnings for further guidance.
   **   ~~~   ** CheckCurveLimitsForStandardRatings: The max and/or min limits specified in the corresponding curve objects
   **   ~~~   **  do not include the AHRI test conditions required to calculate one or more of the Standard Rating values.
   **   ~~~   ** Coil:Cooling:DX:SingleSpeed=DX_COOLING_COIL:  Integrated Energy Efficiency Ratio (IEER) calculated is not at the AHRI test condition.
   **   ~~~   **  Check limits in Total Cooling Capacity Function of Temperature Curve, Curve Type = Curve:Biquadratic, Curve Name = COOL-CAP-FT
   **   ~~~   **  Check limits in EIR Function of Temperature Curve, Curve Type = Curve:Biquadratic, Curve Name = COOL-EIR-FT
   ** Warning ** For object = Coil:Cooling:DX:SingleSpeed, name = "DX_COOLING_COIL"
   **   ~~~   ** Calculated outlet air relative humidity greater than 1. The combination of
   **   ~~~   ** rated air volume flow rate, total cooling capacity and sensible heat ratio yields coil exiting
   **   ~~~   ** air conditions above the saturation curve. Possible fixes are to reduce the rated total cooling
   **   ~~~   ** capacity, increase the rated air volume flow rate, or reduce the rated sensible heat ratio for this coil.
   **   ~~~   ** If autosizing, it is recommended that all three of these values be autosized.
   **   ~~~   ** ...Inputs used for calculating cooling coil bypass factor.
   **   ~~~   ** ...Inlet Air Temperature     = 26.67 C
   **   ~~~   ** ...Outlet Air Temperature    = 12.22 C
   **   ~~~   ** ...Inlet Air Humidity Ratio  = 1.118470E-002 kgWater/kgDryAir
   **   ~~~   ** ...Outlet Air Humidity Ratio = 9.044385E-003 kgWater/kgDryAir
   **   ~~~   ** ...Total Cooling Capacity used in calculation = 10550.56 W
   **   ~~~   ** ...Air Mass Flow Rate used in calculation     = 0.521836 kg/s
   **   ~~~   ** ...Air Volume Flow Rate used in calculation   = 0.451123 m3/s
   **   ~~~   **  During Warmup, Environment=EXTREME_WINTER, at Simulation time=02/10 00:00 - 00:10
   **   ~~~   ** CalcCBF: SHR adjusted to achieve valid outlet air properties and the simulation continues.
   **   ~~~   ** CalcCBF: initial SHR = 0.73000
   **   ~~~   ** CalcCBF: adjusted SHR = 0.71991
   ************* SizeFan: : Potential issue with equipment sizing for Fan:OnOff FAN
   **   ~~~   ** User-Specified Maximum Flow Rate [m3/s] = 0.45112
   **   ~~~   ** differs from Design Size Maximum Flow Rate [m3/s] = 0.91263
   **   ~~~   ** This may, or may not, indicate mismatched component sizes.
   **   ~~~   ** Verify that the value entered is intended and is consistent with other components.
   ** Warning ** Output:Meter: invalid Key Name="PUMPS:ELECTRICITY" - not found.
   ** Warning ** Output:Meter: invalid Key Name="WATERSYSTEMS:ELECTRICITY" - not found.
   ** Warning ** Output:Meter: invalid Key Name="ELECTRIC_RANGE:INTERIOREQUIPMENT:ELECTRICITY" - not found.
   ** Warning ** Output:Meter: invalid Key Name="ELECTRIC_DRYER:INTERIOREQUIPMENT:ELECTRICITY" - not found.
   ** Warning ** Output:Meter: invalid Key Name="GAS_DRYER:INTERIOREQUIPMENT:ELECTRICITY" - not found.
   ** Warning ** Output:Meter: invalid Key Name="CLOTHESWASHER:INTERIOREQUIPMENT:ELECTRICITY" - not found.
   ** Warning ** Output:Meter: invalid Key Name="DISHWASHER:INTERIOREQUIPMENT:ELECTRICITY" - not found.
   ** Warning ** Output:Meter: invalid Key Name="REFRIGERATOR:INTERIOREQUIPMENT:ELECTRICITY" - not found.
   ** Warning ** Output:Meter: invalid Key Name="HEATRECOVERY:ELECTRICITY" - not found.
   ** Warning ** Output:Meter: invalid Key Name="HEATING:NATURALGAS" - not found.
   ** Warning ** Output:Meter: invalid Key Name="WATERSYSTEMS:NATURALGAS" - not found.
   ** Warning ** Output:Meter: invalid Key Name="GAS_DRYER:INTERIOREQUIPMENT:NATURALGAS" - not found.
   ** Warning ** Output:Meter: invalid Key Name="PROPANE:FACILITY" - not found.
   ** Warning ** Output:Meter: invalid Key Name="HEATING:PROPANE" - not found.
   ************* Testing Individual Branch Integrity
   ************* All Branches passed integrity testing
   ************* Testing Individual Supply Air Path Integrity
   ************* All Supply Air Paths passed integrity testing
   ************* Testing Individual Return Air Path Integrity
   ************* All Return Air Paths passed integrity testing
   ************* No node connection errors were found.
   ************* Beginning Simulation
   ** Warning ** CalcDoe2DXCoil: Coil:Cooling:DX:SingleSpeed "DX_COOLING_COIL" - Air-cooled condenser inlet dry-bulb temperature below 0 C. Outdoor dry-bulb temperature = -4.33
   **   ~~~   **  ... Occurrence info = EXTREME_WINTER, 02/10 09:47 - 09:50
   **   ~~~   ** ... Operation at low ambient temperatures may require special performance curves.
   ** Warning ** CalcDoe2DXCoil: Coil:Cooling:DX:SingleSpeed "DX_COOLING_COIL" - Full load outlet air dry-bulb temperature < 2C. This indicates the possibility of coil frost/freeze. Outlet temperature = 1.99 C.
   **   ~~~   **  ...Occurrence info = ANNUAL, 02/25 09:55 - 10:00
   **   ~~~   ** ... Possible reasons for low outlet air dry-bulb temperatures are: This DX coil
   **   ~~~   **    1) may have a low inlet air dry-bulb temperature. Inlet air temperature = 23.073 C.
   **   ~~~   **    2) may have a low air flow rate per watt of cooling capacity. Check inputs.
   **   ~~~   **    3) is used as part of a HX assisted cooling coil which uses a high sensible effectiveness. Check inputs.
   ************* Simulation Error Summary *************
   ** Warning ** The following Report Variables were requested but not generated -- check.rdd file
   **   ~~~   ** Either the IDF did not contain these elements, the variable name is misspelled,
   **   ~~~   ** or the requested variable is an advanced output which requires Output : Diagnostics, DisplayAdvancedReportVariables;
   ************* Key=*, VarName=HEATING COIL DEFROST ELECTRICITY ENERGY, Frequency=
   ************* Key=*, VarName=HEATING COIL CRANKCASE HEATER ELECTRICITY ENERGY, Frequency=
   ************* Key=*, VarName=BASEBOARD TOTAL HEATING ENERGY, Frequency=
   ************* There are 39 unused schedules in input.
   ************* There are 394 unused week schedules in input.
   ************* There are 408 unused day schedules in input.
   ************* Use Output:Diagnostics,DisplayUnusedSchedules; to see them.
   *************
   ************* ===== Recurring Error Summary =====
   ************* The following recurring error messages occurred.
   *************
   *************  ** Warning ** CalcDoe2DXCoil: Coil:Cooling:DX:SingleSpeed="DX_COOLING_COIL" - Low condenser dry-bulb temperature error continues...
   *************  **   ~~~   **   This error occurred 824 total times;
   *************  **   ~~~   **   during Warmup 0 times;
   *************  **   ~~~   **   during Sizing 0 times.
   *************  **   ~~~   **   Max=-1.110223E-016 [C]  Min=-8. [C]
   *************
   *************  ** Warning ** CalcDoe2DXCoil: Coil:Cooling:DX:SingleSpeed="DX_COOLING_COIL" - Full load outlet temperature indicates a possibility of frost/freeze error continues. Outlet air temperature statistics follow:
   *************  **   ~~~   **   This error occurred 2402 total times;
   *************  **   ~~~   **   during Warmup 0 times;
   *************  **   ~~~   **   during Sizing 0 times.
   *************  **   ~~~   **   Max=1.99998  Min=0.754861
   *************
   *************
   ************* ===== Final Error Summary =====
   ************* The following error categories occurred.  Consider correcting or noting.
   ************* Nominally Unused Constructions
   ************* ..The nominally unused constructions warning is provided to alert you to potential conditions that can cause
   ************* ..extra time during simulation. Each construction is calculated by the algorithm indicated in the HeatBalanceAlgorithm
   ************* ..object. You may remove the constructions indicated (when you use the DisplayExtraWarnings option).
   *************
   ************* EnergyPlus Warmup Error Summary. During Warmup: 0 Warning; 0 Severe Errors.
   ************* EnergyPlus Sizing Error Summary. During Sizing: 3 Warning; 0 Severe Errors.
   ************* EnergyPlus Completed Successfully-- 3246 Warning; 0 Severe Errors; Elapsed Time=00hr 00min 44.85sec
