Program Version,EnergyPlus, Version 22.2.0-c249759bad, YMD=2023.09.01 19:04,
   ************* Beginning Zone Sizing Calculations
   ** Warning ** ProcessScheduleInput: Schedule:Constant="ALWAYS ON DISCRETE", Schedule Type Limits Name="ONOFF" not found -- will not be validated
   ** Warning ** Foundation:Kiva="KIVA FOUNDATION", no Interior Horizontal Insulation Material Name defined
   **   ~~~   ** Interior Horizontal Insulation Depth will not be used.
   ** Warning ** CheckUsedConstructions: There are 15 nominally unused constructions in input.
   **   ~~~   ** Each Unused construction is shown.
   ************* Construction=INTERIOR FLOOR
   ************* Construction=INTERIOR WINDOW
   ************* Construction=EXTERIOR DOOR
   ************* Construction=INTERIOR DOOR
   ************* Construction=GABLE CONSTRUCTION
   ************* Construction=CRAWL_FLOOR
   ************* Construction=INSULATED PIPE
   ************* Construction=PLAIN PIPE
   ************* Construction=TDD PIPE
   ************* Construction=TDD DOME
   ************* Construction=TDD DIFFUSER
   ************* Construction=CRAWL WALL
   ************* Construction=CEILING-FLOOR-LAYER
   ************* Construction=SLAB CONSTRUCTION W FULL R10 INSULATION
   ************* Construction=SLAB CONSTRUCTION W FULL R5 INSULATION
   ** Warning ** GetDXCoils: Coil:Heating:DX:SingleSpeed="DX_HEATING_COIL" curve values
   **   ~~~   ** ... Defrost Energy Input Ratio Function of Temperature Curve Name = DEFROSTEIR output is not equal to 1.0 (+ or - 10%) at rated conditions.
   **   ~~~   ** ... Curve output at rated conditions = 0.152
   ************* Beginning System Sizing Calculations
   ************* Beginning Plant Sizing Calculations
   ** Warning ** SizeDXCoil Coil:Cooling:DX:SingleSpeed DX_COOLING_COIL
   **   ~~~   ** ...Gross Rated Total Cooling Capacity [W] will be limited by the maximum rated volume flow per rated total capacity ratio.
   **   ~~~   ** ...DX coil volume flow rate ( m3/s ) = 0.373694
   **   ~~~   ** ...Requested capacity ( W ) = 5459.194
   **   ~~~   ** ...Requested flow/capacity ratio ( m3/s/W ) = 6.845E-005
   **   ~~~   ** ...Maximum flow/capacity ratio ( m3/s/W ) = 6.041E-005
   **   ~~~   ** ...Adjusted capacity ( W ) = 6185.964
   ** Warning ** SizeDXCoil Coil:Heating:DX:SingleSpeed DX_HEATING_COIL
   **   ~~~   ** ...Gross Rated Heating Capacity [W] will be limited by the maximum rated volume flow per rated total capacity ratio.
   **   ~~~   ** ...DX coil volume flow rate ( m3/s ) = 0.373694
   **   ~~~   ** ...Requested capacity ( W ) = 6185.964
   **   ~~~   ** ...Requested flow/capacity ratio ( m3/s/W ) = 6.041E-005
   **   ~~~   ** ...Maximum flow/capacity ratio ( m3/s/W ) = 6.041E-005
   **   ~~~   ** ...Adjusted capacity ( W ) = 6185.964
   ** Warning ** Coil:WaterHeating:AirToWaterHeatPump:Wrapped "HEAT PUMP WATER HEATER EVAPORATOR": Rated air volume flow rate per watt of rated total water heating capacity is out of range
   **   ~~~   ** Min Rated Vol Flow Per Watt=[4.027E-005], Rated Vol Flow Per Watt=[1.510E-004], Max Rated Vol Flow Per Watt=[8.056E-005]. See Input-Output Reference Manual for valid range.
   ************* SizeFan: : Potential issue with equipment sizing for Fan:OnOff HEAT PUMP WATER HEATER FAN
   **   ~~~   ** User-Specified Maximum Flow Rate [m3/s] = 0.22653
   **   ~~~   ** differs from Design Size Maximum Flow Rate [m3/s] = 7.55250E-002
   **   ~~~   ** This may, or may not, indicate mismatched component sizes.
   **   ~~~   ** Verify that the value entered is intended and is consistent with other components.
   ** Warning ** Water heater = WATER HEATER TANK:  Recovery Efficiency and Energy Factor could not be calculated during the test for standard ratings
   **   ~~~   ** Setpoint was never recovered and/or heater never turned on
   ** Warning ** Check input. Pump nominal power or motor efficiency is set to 0, for pump=MAINS PRESSURE
   ** Warning ** AirflowNetwork::Solver::validate_distribution: Heat pump water heater is simulated along with an AirflowNetwork but is not included in the AirflowNetwork.
   ** Warning ** Output:Meter: invalid Key Name="ELECTRIC_RANGE:INTERIOREQUIPMENT:ELECTRICITY" - not found.
   ** Warning ** Output:Meter: invalid Key Name="ELECTRIC_DRYER:INTERIOREQUIPMENT:ELECTRICITY" - not found.
   ** Warning ** Output:Meter: invalid Key Name="HEATRECOVERY:ELECTRICITY" - not found.
   ** Warning ** Output:Meter: invalid Key Name="HEATING:NATURALGAS" - not found.
   ** Warning ** Output:Meter: invalid Key Name="WATERSYSTEMS:NATURALGAS" - not found.
   ** Warning ** Output:Meter: invalid Key Name="PROPANE:FACILITY" - not found.
   ** Warning ** Output:Meter: invalid Key Name="HEATING:PROPANE" - not found.
   ************* Testing Individual Branch Integrity
   ************* All Branches passed integrity testing
   ************* Testing Individual Supply Air Path Integrity
   ************* All Supply Air Paths passed integrity testing
   ************* Testing Individual Return Air Path Integrity
   ************* All Return Air Paths passed integrity testing
   ************* No node connection errors were found.
   ************* Beginning Simulation
   ** Warning ** CalcEquipmentFlowRates: "TOTAL HOT WATER LOAD" - Target water temperature is greater than the hot water temperature by (2.20 C)
   **   ~~~   **  Environment=EXTREME_WINTER, at Simulation time=01/18 03:45 - 04:00
   **   ~~~   ** ...target water temperature     = 53.33 C
   **   ~~~   ** ...hot water temperature        = 51.13 C
   **   ~~~   ** ...Target water temperature should be less than or equal to the hot water temperature. Verify temperature setpoints and schedules.
   ** Warning ** SimHVAC: Maximum iterations (20) exceeded for all HVAC loops, at ANNUAL, 03/29 00:40 - 00:45
   **   ~~~   ** The solution for one or more of the Air Loop HVAC systems did not appear to converge
   **   ~~~   ** Air System Named = CENTRAL SYSTEM did not converge for mass flow rate
   **   ~~~   ** Check values should be zero. Most Recent values listed first.
   **   ~~~   ** Demand-to-Supply interface mass flow rate check value iteration history trace: 7.989609E-002,7.989609E-002,7.989609E-002,7.989609E-002,7.989609E-002,7.989609E-002,7.989609E-002,7.989609E-002,7.989609E-002,7.989609E-002,
   **   ~~~   ** Supply-to-demand interface deck 1 mass flow rate check value iteration history trace: 7.989609E-002,7.989609E-002,7.989609E-002,7.989609E-002,7.989609E-002,7.989609E-002,7.989609E-002,7.989609E-002,7.989609E-002,7.989609E-002,
   **   ~~~   ** Air System Named = CENTRAL SYSTEM did not converge for energy
   **   ~~~   ** Check values should be zero. Most Recent values listed first.
   **   ~~~   ** Demand-to-Supply interface energy check value iteration history trace: 1485.795608,1485.795608,1485.795608,1485.795608,1485.795608,1485.795608,1485.795608,1485.795608,1485.795608,1485.795608,
   **   ~~~   ** Supply-to-demand interface deck 1 energy check value iteration history trace: 2287.746820,2287.746820,2287.746820,2287.746820,2287.746820,2287.746820,2287.746819,2287.746819,2287.746819,2287.746819,
   ** Warning ** SimHVAC: Maximum iterations (20) exceeded for all HVAC loops, at ANNUAL, 03/31 23:15 - 23:30
   **   ~~~   ** The solution for one or more of the Air Loop HVAC systems did not appear to converge
   **   ~~~   ** Air System Named = CENTRAL SYSTEM did not converge for mass flow rate
   **   ~~~   ** Check values should be zero. Most Recent values listed first.
   **   ~~~   ** Demand-to-Supply interface mass flow rate check value iteration history trace: 7.870653E-002,7.870653E-002,7.870653E-002,7.870653E-002,7.870653E-002,7.870653E-002,7.870653E-002,7.870653E-002,7.870653E-002,7.870653E-002,
   **   ~~~   ** Supply-to-demand interface deck 1 mass flow rate check value iteration history trace: 7.870653E-002,7.870653E-002,7.870653E-002,7.870653E-002,7.870653E-002,7.870653E-002,7.870653E-002,7.870653E-002,7.870653E-002,7.870653E-002,
   **   ~~~   ** Air System Named = CENTRAL SYSTEM did not converge for energy
   **   ~~~   ** Check values should be zero. Most Recent values listed first.
   **   ~~~   ** Demand-to-Supply interface energy check value iteration history trace: 1471.065728,1471.065728,1471.065728,1471.065728,1471.065728,1471.065728,1471.065728,1471.065727,1471.065727,1471.065727,
   **   ~~~   ** Supply-to-demand interface deck 1 energy check value iteration history trace: 2238.119403,2238.119403,2238.119403,2238.119402,2238.119402,2238.119402,2238.119402,2238.119402,2238.119402,2238.119401,
   ** Warning ** SimHVAC: Maximum iterations (20) exceeded for all HVAC loops, at ANNUAL, 05/01 07:30 - 07:45
   **   ~~~   ** The solution for one or more of the Air Loop HVAC systems did not appear to converge
   **   ~~~   ** Air System Named = CENTRAL SYSTEM did not converge for mass flow rate
   **   ~~~   ** Check values should be zero. Most Recent values listed first.
   **   ~~~   ** Demand-to-Supply interface mass flow rate check value iteration history trace: 6.393740E-002,6.393740E-002,6.393740E-002,6.393740E-002,6.393740E-002,6.393740E-002,6.393740E-002,6.393740E-002,6.393740E-002,6.393740E-002,
   **   ~~~   ** Supply-to-demand interface deck 1 mass flow rate check value iteration history trace: 6.393740E-002,6.393740E-002,6.393740E-002,6.393740E-002,6.393740E-002,6.393740E-002,6.393740E-002,6.393740E-002,6.393740E-002,6.393740E-002,
   **   ~~~   ** Air System Named = CENTRAL SYSTEM did not converge for energy
   **   ~~~   ** Check values should be zero. Most Recent values listed first.
   **   ~~~   ** Demand-to-Supply interface energy check value iteration history trace: 1267.021956,1267.021956,1267.021956,1267.021956,1267.021956,1267.021956,1267.021956,1267.021956,1267.021956,1267.021956,
   **   ~~~   ** Supply-to-demand interface deck 1 energy check value iteration history trace: 2283.831731,2283.831731,2283.831731,2283.831731,2283.831731,2283.831731,2283.831730,2283.831730,2283.831730,2283.831730,
   ** Warning ** SimHVAC: Maximum iterations (20) exceeded for all HVAC loops, at ANNUAL, 05/06 07:30 - 07:38
   **   ~~~   ** The solution for one or more of the Air Loop HVAC systems did not appear to converge
   **   ~~~   ** Air System Named = CENTRAL SYSTEM did not converge for mass flow rate
   **   ~~~   ** Check values should be zero. Most Recent values listed first.
   **   ~~~   ** Demand-to-Supply interface mass flow rate check value iteration history trace: 5.404086E-002,5.404086E-002,5.404086E-002,5.404086E-002,5.404086E-002,5.404086E-002,5.404086E-002,5.404086E-002,5.404086E-002,5.404086E-002,
   **   ~~~   ** Supply-to-demand interface deck 1 mass flow rate check value iteration history trace: 5.404086E-002,5.404086E-002,5.404086E-002,5.404086E-002,5.404086E-002,5.404086E-002,5.404086E-002,5.404086E-002,5.404086E-002,5.404086E-002,
   **   ~~~   ** Air System Named = CENTRAL SYSTEM did not converge for energy
   **   ~~~   ** Check values should be zero. Most Recent values listed first.
   **   ~~~   ** Demand-to-Supply interface energy check value iteration history trace: 1070.809302,1070.809302,1070.809302,1070.809302,1070.809302,1070.809302,1070.809302,1070.809302,1070.809302,1070.809301,
   **   ~~~   ** Supply-to-demand interface deck 1 energy check value iteration history trace: 1881.013329,1881.013328,1881.013328,1881.013328,1881.013328,1881.013328,1881.013328,1881.013328,1881.013328,1881.013328,
   ** Warning ** SimHVAC: Maximum iterations (20) exceeded for all HVAC loops, at ANNUAL, 05/18 08:45 - 09:00
   **   ~~~   ** The solution for one or more of the Air Loop HVAC systems did not appear to converge
   **   ~~~   ** Air System Named = CENTRAL SYSTEM did not converge for mass flow rate
   **   ~~~   ** Check values should be zero. Most Recent values listed first.
   **   ~~~   ** Demand-to-Supply interface mass flow rate check value iteration history trace: 6.099039E-002,6.099039E-002,6.099039E-002,6.099039E-002,6.099039E-002,6.099039E-002,6.099039E-002,6.099039E-002,6.099039E-002,6.099039E-002,
   **   ~~~   ** Supply-to-demand interface deck 1 mass flow rate check value iteration history trace: 6.099039E-002,6.099039E-002,6.099039E-002,6.099039E-002,6.099039E-002,6.099039E-002,6.099039E-002,6.099039E-002,6.099039E-002,6.099039E-002,
   **   ~~~   ** Air System Named = CENTRAL SYSTEM did not converge for energy
   **   ~~~   ** Check values should be zero. Most Recent values listed first.
   **   ~~~   ** Demand-to-Supply interface energy check value iteration history trace: 1187.979863,1187.979863,1187.979863,1187.979862,1187.979862,1187.979862,1187.979862,1187.979862,1187.979861,1187.979861,
   **   ~~~   ** Supply-to-demand interface deck 1 energy check value iteration history trace: 2081.284342,2081.284341,2081.284341,2081.284341,2081.284340,2081.284340,2081.284340,2081.284339,2081.284339,2081.284339,
   ** Warning ** SimHVAC: Maximum iterations (20) exceeded for all HVAC loops, at ANNUAL, 05/23 07:15 - 07:18
   **   ~~~   ** The solution for one or more of the Air Loop HVAC systems did not appear to converge
   **   ~~~   ** Air System Named = CENTRAL SYSTEM did not converge for mass flow rate
   **   ~~~   ** Check values should be zero. Most Recent values listed first.
   **   ~~~   ** Demand-to-Supply interface mass flow rate check value iteration history trace: 5.621981E-002,5.621981E-002,5.621981E-002,5.621981E-002,5.621981E-002,5.621981E-002,5.621981E-002,5.621981E-002,5.621981E-002,5.621981E-002,
   **   ~~~   ** Supply-to-demand interface deck 1 mass flow rate check value iteration history trace: 5.621981E-002,5.621981E-002,5.621981E-002,5.621981E-002,5.621981E-002,5.621981E-002,5.621981E-002,5.621981E-002,5.621981E-002,5.621981E-002,
   **   ~~~   ** Air System Named = CENTRAL SYSTEM did not converge for energy
   **   ~~~   ** Check values should be zero. Most Recent values listed first.
   **   ~~~   ** Demand-to-Supply interface energy check value iteration history trace: 1112.369538,1112.369538,1112.369538,1112.369538,1112.369538,1112.369538,1112.369537,1112.369537,1112.369537,1112.369537,
   **   ~~~   ** Supply-to-demand interface deck 1 energy check value iteration history trace: 2080.281231,2080.281231,2080.281231,2080.281231,2080.281231,2080.281231,2080.281231,2080.281231,2080.281231,2080.281231,
   ** Warning ** SimHVAC: Maximum iterations (20) exceeded for all HVAC loops, at ANNUAL, 06/19 07:06 - 07:08
   **   ~~~   ** The solution for one or more of the Air Loop HVAC systems did not appear to converge
   **   ~~~   ** Air System Named = CENTRAL SYSTEM did not converge for mass flow rate
   **   ~~~   ** Check values should be zero. Most Recent values listed first.
   **   ~~~   ** Demand-to-Supply interface mass flow rate check value iteration history trace: 0.226171,0.226171,0.226171,0.226171,0.226171,0.226171,0.226171,0.226171,0.226171,0.226171,
   **   ~~~   ** Supply-to-demand interface deck 1 mass flow rate check value iteration history trace: 0.226171,0.226171,0.226171,0.226171,0.226171,0.226171,0.226171,0.226171,0.226171,0.226171,
   **   ~~~   ** Air System Named = CENTRAL SYSTEM did not converge for energy
   **   ~~~   ** Check values should be zero. Most Recent values listed first.
   **   ~~~   ** Demand-to-Supply interface energy check value iteration history trace: 5357.816496,5357.816498,5357.816499,5357.816501,5357.816503,5357.816504,5357.816506,5357.816507,5357.816509,5357.816510,
   **   ~~~   ** Supply-to-demand interface deck 1 energy check value iteration history trace: 2617.239216,2617.239216,2617.239217,2617.239218,2617.239219,2617.239219,2617.239220,2617.239221,2617.239222,2617.239222,
   ** Warning ** SimHVAC: Maximum iterations (20) exceeded for all HVAC loops, at ANNUAL, 06/20 00:00 - 00:15
   **   ~~~   ** The solution for one or more of the Air Loop HVAC systems did not appear to converge
   **   ~~~   ** Air System Named = CENTRAL SYSTEM did not converge for mass flow rate
   **   ~~~   ** Check values should be zero. Most Recent values listed first.
   **   ~~~   ** Demand-to-Supply interface mass flow rate check value iteration history trace: 9.724861E-002,9.724861E-002,9.724861E-002,9.724861E-002,9.724861E-002,9.724861E-002,9.724861E-002,9.724861E-002,9.724861E-002,9.724861E-002,
   **   ~~~   ** Supply-to-demand interface deck 1 mass flow rate check value iteration history trace: 9.724861E-002,9.724861E-002,9.724861E-002,9.724861E-002,9.724861E-002,9.724861E-002,9.724861E-002,9.724861E-002,9.724861E-002,9.724861E-002,
   **   ~~~   ** Air System Named = CENTRAL SYSTEM did not converge for energy
   **   ~~~   ** Check values should be zero. Most Recent values listed first.
   **   ~~~   ** Demand-to-Supply interface energy check value iteration history trace: 2437.873056,2437.873057,2437.873057,2437.873058,2437.873058,2437.873059,2437.873059,2437.873060,2437.873061,2437.873061,
   **   ~~~   ** Supply-to-demand interface deck 1 energy check value iteration history trace: 1165.815888,1165.815888,1165.815888,1165.815888,1165.815889,1165.815889,1165.815889,1165.815890,1165.815890,1165.815890,
   ** Warning ** SimHVAC: Maximum iterations (20) exceeded for all HVAC loops, at ANNUAL, 09/09 15:15 - 15:20
   **   ~~~   ** The solution for one or more of the Air Loop HVAC systems did not appear to converge
   **   ~~~   ** Air System Named = CENTRAL SYSTEM did not converge for mass flow rate
   **   ~~~   ** Check values should be zero. Most Recent values listed first.
   **   ~~~   ** Demand-to-Supply interface mass flow rate check value iteration history trace: 0.124975,0.124975,0.124975,0.124975,0.124975,0.124975,0.124975,0.124975,0.124975,0.124975,
   **   ~~~   ** Supply-to-demand interface deck 1 mass flow rate check value iteration history trace: 0.124975,0.124975,0.124975,0.124975,0.124975,0.124975,0.124975,0.124975,0.124975,0.124975,
   **   ~~~   ** Air System Named = CENTRAL SYSTEM did not converge for energy
   **   ~~~   ** Check values should be zero. Most Recent values listed first.
   **   ~~~   ** Demand-to-Supply interface energy check value iteration history trace: 2955.245876,2955.245876,2955.245877,2955.245877,2955.245877,2955.245878,2955.245878,2955.245878,2955.245878,2955.245879,
   **   ~~~   ** Supply-to-demand interface deck 1 energy check value iteration history trace: 1284.754097,1284.754097,1284.754097,1284.754097,1284.754097,1284.754097,1284.754098,1284.754098,1284.754098,1284.754098,
   ** Warning ** SimHVAC: Maximum iterations (20) exceeded for all HVAC loops, at ANNUAL, 09/12 17:45 - 18:00
   **   ~~~   ** The solution for one or more of the Air Loop HVAC systems did not appear to converge
   **   ~~~   ** Air System Named = CENTRAL SYSTEM did not converge for mass flow rate
   **   ~~~   ** Check values should be zero. Most Recent values listed first.
   **   ~~~   ** Demand-to-Supply interface mass flow rate check value iteration history trace: 9.782223E-002,9.782223E-002,9.782223E-002,9.782223E-002,9.782223E-002,9.782223E-002,9.782223E-002,9.782223E-002,9.782223E-002,9.782223E-002,
   **   ~~~   ** Supply-to-demand interface deck 1 mass flow rate check value iteration history trace: 9.782223E-002,9.782223E-002,9.782223E-002,9.782223E-002,9.782223E-002,9.782223E-002,9.782223E-002,9.782223E-002,9.782223E-002,9.782223E-002,
   **   ~~~   ** Air System Named = CENTRAL SYSTEM did not converge for energy
   **   ~~~   ** Check values should be zero. Most Recent values listed first.
   **   ~~~   ** Demand-to-Supply interface energy check value iteration history trace: 2302.609578,2302.609578,2302.609578,2302.609578,2302.609578,2302.609578,2302.609579,2302.609579,2302.609579,2302.609579,
   **   ~~~   ** Supply-to-demand interface deck 1 energy check value iteration history trace: 1236.822303,1236.822303,1236.822303,1236.822303,1236.822304,1236.822304,1236.822304,1236.822304,1236.822304,1236.822304,
   ** Warning ** SimHVAC: Maximum iterations (20) exceeded for all HVAC loops, at ANNUAL, 09/12 21:38 - 21:45
   **   ~~~   ** The solution for one or more of the Air Loop HVAC systems did not appear to converge
   **   ~~~   ** Air System Named = CENTRAL SYSTEM did not converge for mass flow rate
   **   ~~~   ** Check values should be zero. Most Recent values listed first.
   **   ~~~   ** Demand-to-Supply interface mass flow rate check value iteration history trace: 0.117553,0.117553,0.117553,0.117553,0.117553,0.117553,0.117553,0.117553,0.117553,0.117553,
   **   ~~~   ** Supply-to-demand interface deck 1 mass flow rate check value iteration history trace: 0.117553,0.117553,0.117553,0.117553,0.117553,0.117553,0.117553,0.117553,0.117553,0.117553,
   **   ~~~   ** Air System Named = CENTRAL SYSTEM did not converge for energy
   **   ~~~   ** Check values should be zero. Most Recent values listed first.
   **   ~~~   ** Demand-to-Supply interface energy check value iteration history trace: 2770.763035,2770.763036,2770.763036,2770.763037,2770.763037,2770.763037,2770.763038,2770.763038,2770.763039,2770.763039,
   **   ~~~   ** Supply-to-demand interface deck 1 energy check value iteration history trace: 1466.963651,1466.963652,1466.963652,1466.963652,1466.963652,1466.963652,1466.963653,1466.963653,1466.963653,1466.963653,
   ** Warning ** SimHVAC: Maximum iterations (20) exceeded for all HVAC loops, at ANNUAL, 09/23 10:26 - 10:30
   **   ~~~   ** The solution for one or more of the Air Loop HVAC systems did not appear to converge
   **   ~~~   ** Air System Named = CENTRAL SYSTEM did not converge for mass flow rate
   **   ~~~   ** Check values should be zero. Most Recent values listed first.
   **   ~~~   ** Demand-to-Supply interface mass flow rate check value iteration history trace: 9.921987E-002,9.921987E-002,9.921987E-002,9.921987E-002,9.921987E-002,9.921987E-002,9.921987E-002,9.921987E-002,9.921987E-002,9.921987E-002,
   **   ~~~   ** Supply-to-demand interface deck 1 mass flow rate check value iteration history trace: 9.921987E-002,9.921987E-002,9.921987E-002,9.921987E-002,9.921987E-002,9.921987E-002,9.921987E-002,9.921987E-002,9.921987E-002,9.921987E-002,
   **   ~~~   ** Air System Named = CENTRAL SYSTEM did not converge for energy
   **   ~~~   ** Check values should be zero. Most Recent values listed first.
   **   ~~~   ** Demand-to-Supply interface energy check value iteration history trace: 2341.320436,2341.320437,2341.320437,2341.320437,2341.320437,2341.320437,2341.320437,2341.320438,2341.320438,2341.320438,
   **   ~~~   ** Supply-to-demand interface deck 1 energy check value iteration history trace: 1238.657790,1238.657790,1238.657790,1238.657790,1238.657790,1238.657790,1238.657790,1238.657790,1238.657790,1238.657790,
   ** Warning ** SimHVAC: Maximum iterations (20) exceeded for all HVAC loops, at ANNUAL, 09/28 20:00 - 20:15
   **   ~~~   ** The solution for one or more of the Air Loop HVAC systems did not appear to converge
   **   ~~~   ** Air System Named = CENTRAL SYSTEM did not converge for mass flow rate
   **   ~~~   ** Check values should be zero. Most Recent values listed first.
   **   ~~~   ** Demand-to-Supply interface mass flow rate check value iteration history trace: 4.696340E-002,4.696340E-002,4.696340E-002,4.696340E-002,4.696340E-002,4.696340E-002,4.696340E-002,4.696340E-002,4.696340E-002,4.696340E-002,
   **   ~~~   ** Supply-to-demand interface deck 1 mass flow rate check value iteration history trace: 4.696340E-002,4.696340E-002,4.696340E-002,4.696340E-002,4.696340E-002,4.696340E-002,4.696340E-002,4.696340E-002,4.696340E-002,4.696340E-002,
   **   ~~~   ** Air System Named = CENTRAL SYSTEM did not converge for energy
   **   ~~~   ** Check values should be zero. Most Recent values listed first.
   **   ~~~   ** Demand-to-Supply interface energy check value iteration history trace: 1120.489207,1120.489207,1120.489208,1120.489208,1120.489208,1120.489208,1120.489208,1120.489208,1120.489208,1120.489208,
   **   ~~~   ** Supply-to-demand interface deck 1 energy check value iteration history trace: 534.882498,534.882498,534.882498,534.882498,534.882498,534.882498,534.882498,534.882498,534.882498,534.882498,
   ** Warning ** SimHVAC: Maximum iterations (20) exceeded for all HVAC loops, at ANNUAL, 09/28 20:53 - 21:00
   **   ~~~   ** The solution for one or more of the Air Loop HVAC systems did not appear to converge
   **   ~~~   ** Air System Named = CENTRAL SYSTEM did not converge for mass flow rate
   **   ~~~   ** Check values should be zero. Most Recent values listed first.
   **   ~~~   ** Demand-to-Supply interface mass flow rate check value iteration history trace: 0.161516,0.161516,0.161516,0.161516,0.161516,0.161516,0.161516,0.161516,0.161516,0.161516,
   **   ~~~   ** Supply-to-demand interface deck 1 mass flow rate check value iteration history trace: 0.161516,0.161516,0.161516,0.161516,0.161516,0.161516,0.161516,0.161516,0.161516,0.161516,
   **   ~~~   ** Air System Named = CENTRAL SYSTEM did not converge for energy
   **   ~~~   ** Check values should be zero. Most Recent values listed first.
   **   ~~~   ** Demand-to-Supply interface energy check value iteration history trace: 3844.679485,3844.679485,3844.679486,3844.679486,3844.679486,3844.679486,3844.679487,3844.679487,3844.679487,3844.679487,
   **   ~~~   ** Supply-to-demand interface deck 1 energy check value iteration history trace: 1820.201937,1820.201937,1820.201937,1820.201938,1820.201938,1820.201938,1820.201938,1820.201938,1820.201938,1820.201938,
   ************* Simulation Error Summary *************
   ** Warning ** The following Report Variables were requested but not generated -- check.rdd file
   **   ~~~   ** Either the IDF did not contain these elements, the variable name is misspelled,
   **   ~~~   ** or the requested variable is an advanced output which requires Output : Diagnostics, DisplayAdvancedReportVariables;
   ************* Key=*, VarName=BASEBOARD TOTAL HEATING ENERGY, Frequency=
   ************* Key=*, VarName=WATER HEATER NATURALGAS ENERGY, Frequency=
   ************* Key=*, VarName=COOLING COIL TOTAL HEATING ENERGY, Frequency=
   ************* There are 34 unused schedules in input.
   ************* There are 388 unused week schedules in input.
   ************* There are 396 unused day schedules in input.
   ************* Use Output:Diagnostics,DisplayUnusedSchedules; to see them.
   *************
   ************* ===== Recurring Error Summary =====
   ************* The following recurring error messages occurred.
   *************
   *************  ** Warning ** "TOTAL HOT WATER LOAD" - Target water temperature should be less than or equal to the hot water temperature error continues...
   *************  **   ~~~   **   This error occurred 55293 total times;
   *************  **   ~~~   **   during Warmup 0 times;
   *************  **   ~~~   **   during Sizing 0 times.
   *************  **   ~~~   **   Max=6.926991  Min=3.853605E-003
   *************
   *************  ** Warning ** SimHVAC: Exceeding Maximum iterations for all HVAC loops, during ANNUAL continues
   *************  **   ~~~   **   This error occurred 3 total times;
   *************  **   ~~~   **   during Warmup 0 times;
   *************  **   ~~~   **   during Sizing 0 times.
   *************
   *************
   ************* ===== Final Error Summary =====
   ************* The following error categories occurred.  Consider correcting or noting.
   ************* Nominally Unused Constructions
   ************* ..The nominally unused constructions warning is provided to alert you to potential conditions that can cause
   ************* ..extra time during simulation. Each construction is calculated by the algorithm indicated in the HeatBalanceAlgorithm
   ************* ..object. You may remove the constructions indicated (when you use the DisplayExtraWarnings option).
   *************
   ************* EnergyPlus Warmup Error Summary. During Warmup: 0 Warning; 0 Severe Errors.
   ************* EnergyPlus Sizing Error Summary. During Sizing: 4 Warning; 0 Severe Errors.
   ************* EnergyPlus Completed Successfully-- 55329 Warning; 0 Severe Errors; Elapsed Time=00hr 01min 29.44sec
