Program Version,EnergyPlus, Version 22.2.0-c249759bad, YMD=2023.09.01 18:49,
   ************* Beginning Zone Sizing Calculations
   ** Warning ** ProcessScheduleInput: Schedule:Constant="ALWAYS ON DISCRETE", Schedule Type Limits Name="ONOFF" not found -- will not be validated
   ** Warning ** Foundation:Kiva="KIVA FOUNDATION", no Interior Horizontal Insulation Material Name defined
   **   ~~~   ** Interior Horizontal Insulation Depth will not be used.
   ** Warning ** CheckUsedConstructions: There are 15 nominally unused constructions in input.
   **   ~~~   ** Each Unused construction is shown.
   ************* Construction=INTERIOR FLOOR
   ************* Construction=INTERIOR WINDOW
   ************* Construction=EXTERIOR DOOR
   ************* Construction=INTERIOR DOOR
   ************* Construction=GABLE CONSTRUCTION
   ************* Construction=CRAWL_FLOOR
   ************* Construction=INSULATED PIPE
   ************* Construction=PLAIN PIPE
   ************* Construction=TDD PIPE
   ************* Construction=TDD DOME
   ************* Construction=TDD DIFFUSER
   ************* Construction=CRAWL WALL
   ************* Construction=CEILING-FLOOR-LAYER
   ************* Construction=SLAB CONSTRUCTION W FULL R10 INSULATION
   ************* Construction=SLAB CONSTRUCTION W FULL R5 INSULATION
   ** Warning ** GetDXCoils: Coil:Heating:DX:SingleSpeed="DX_HEATING_COIL" curve values
   **   ~~~   ** ... Defrost Energy Input Ratio Function of Temperature Curve Name = DEFROSTEIR output is not equal to 1.0 (+ or - 10%) at rated conditions.
   **   ~~~   ** ... Curve output at rated conditions = 0.152
   ************* Beginning System Sizing Calculations
   ************* Beginning Plant Sizing Calculations
   ** Warning ** Coil:WaterHeating:AirToWaterHeatPump:Wrapped "HEAT PUMP WATER HEATER EVAPORATOR": Rated air volume flow rate per watt of rated total water heating capacity is out of range
   **   ~~~   ** Min Rated Vol Flow Per Watt=[4.027E-005], Rated Vol Flow Per Watt=[1.510E-004], Max Rated Vol Flow Per Watt=[8.056E-005]. See Input-Output Reference Manual for valid range.
   ************* SizeFan: : Potential issue with equipment sizing for Fan:OnOff HEAT PUMP WATER HEATER FAN
   **   ~~~   ** User-Specified Maximum Flow Rate [m3/s] = 0.22653
   **   ~~~   ** differs from Design Size Maximum Flow Rate [m3/s] = 7.55250E-002
   **   ~~~   ** This may, or may not, indicate mismatched component sizes.
   **   ~~~   ** Verify that the value entered is intended and is consistent with other components.
   ** Warning ** Water heater = WATER HEATER TANK:  Recovery Efficiency and Energy Factor could not be calculated during the test for standard ratings
   **   ~~~   ** Setpoint was never recovered and/or heater never turned on
   ** Warning ** Check input. Pump nominal power or motor efficiency is set to 0, for pump=MAINS PRESSURE
   ** Warning ** Output:Meter: invalid Key Name="ELECTRIC_RANGE:INTERIOREQUIPMENT:ELECTRICITY" - not found.
   ** Warning ** Output:Meter: invalid Key Name="ELECTRIC_DRYER:INTERIOREQUIPMENT:ELECTRICITY" - not found.
   ** Warning ** Output:Meter: invalid Key Name="HEATRECOVERY:ELECTRICITY" - not found.
   ** Warning ** Output:Meter: invalid Key Name="HEATING:NATURALGAS" - not found.
   ** Warning ** Output:Meter: invalid Key Name="WATERSYSTEMS:NATURALGAS" - not found.
   ** Warning ** Output:Meter: invalid Key Name="PROPANE:FACILITY" - not found.
   ** Warning ** Output:Meter: invalid Key Name="HEATING:PROPANE" - not found.
   ************* Testing Individual Branch Integrity
   ************* All Branches passed integrity testing
   ************* Testing Individual Supply Air Path Integrity
   ************* All Supply Air Paths passed integrity testing
   ************* Testing Individual Return Air Path Integrity
   ************* All Return Air Paths passed integrity testing
   ************* No node connection errors were found.
   ************* Beginning Simulation
   ** Warning ** AirflowNetwork::Solver::validate_distribution: Heat pump water heater is simulated along with an AirflowNetwork but is not included in the AirflowNetwork.
   ** Warning ** CalcEquipmentFlowRates: "TOTAL HOT WATER LOAD" - Target water temperature is greater than the hot water temperature by (1.40 C)
   **   ~~~   **  Environment=EXTREME_WINTER, at Simulation time=01/29 03:45 - 04:00
   **   ~~~   ** ...target water temperature     = 53.33 C
   **   ~~~   ** ...hot water temperature        = 51.94 C
   **   ~~~   ** ...Target water temperature should be less than or equal to the hot water temperature. Verify temperature setpoints and schedules.
   ** Warning ** SimHVAC: Maximum iterations (20) exceeded for all HVAC loops, at ANNUAL, 01/16 19:00 - 19:08
   **   ~~~   ** The solution for one or more of the Air Loop HVAC systems did not appear to converge
   **   ~~~   ** Air System Named = CENTRAL SYSTEM did not converge for mass flow rate
   **   ~~~   ** Check values should be zero. Most Recent values listed first.
   **   ~~~   ** Demand-to-Supply interface mass flow rate check value iteration history trace: 6.629691E-002,6.629691E-002,6.629691E-002,6.629691E-002,6.629691E-002,6.629691E-002,6.629691E-002,6.629691E-002,6.629691E-002,6.629691E-002,
   **   ~~~   ** Supply-to-demand interface deck 1 mass flow rate check value iteration history trace: 6.629691E-002,6.629691E-002,6.629691E-002,6.629691E-002,6.629691E-002,6.629691E-002,6.629691E-002,6.629691E-002,6.629691E-002,6.629691E-002,
   **   ~~~   ** Air System Named = CENTRAL SYSTEM did not converge for energy
   **   ~~~   ** Check values should be zero. Most Recent values listed first.
   **   ~~~   ** Demand-to-Supply interface energy check value iteration history trace: 1315.081167,1315.081167,1315.081167,1315.081167,1315.081167,1315.081167,1315.081167,1315.081167,1315.081167,1315.081167,
   **   ~~~   ** Supply-to-demand interface deck 1 energy check value iteration history trace: 2301.479475,2301.479475,2301.479475,2301.479475,2301.479475,2301.479475,2301.479474,2301.479474,2301.479474,2301.479474,
   ** Warning ** SimHVAC: Maximum iterations (20) exceeded for all HVAC loops, at ANNUAL, 01/17 19:38 - 19:45
   **   ~~~   ** The solution for one or more of the Air Loop HVAC systems did not appear to converge
   **   ~~~   ** Air System Named = CENTRAL SYSTEM did not converge for mass flow rate
   **   ~~~   ** Check values should be zero. Most Recent values listed first.
   **   ~~~   ** Demand-to-Supply interface mass flow rate check value iteration history trace: 5.232483E-002,5.232483E-002,5.232483E-002,5.232483E-002,5.232483E-002,5.232483E-002,5.232483E-002,5.232483E-002,5.232483E-002,5.232483E-002,
   **   ~~~   ** Supply-to-demand interface deck 1 mass flow rate check value iteration history trace: 5.232483E-002,5.232483E-002,5.232483E-002,5.232483E-002,5.232483E-002,5.232483E-002,5.232483E-002,5.232483E-002,5.232483E-002,5.232483E-002,
   **   ~~~   ** Air System Named = CENTRAL SYSTEM did not converge for energy
   **   ~~~   ** Check values should be zero. Most Recent values listed first.
   **   ~~~   ** Demand-to-Supply interface energy check value iteration history trace: 1038.925597,1038.925597,1038.925597,1038.925597,1038.925597,1038.925597,1038.925597,1038.925597,1038.925597,1038.925597,
   **   ~~~   ** Supply-to-demand interface deck 1 energy check value iteration history trace: 1817.520978,1817.520978,1817.520978,1817.520978,1817.520978,1817.520978,1817.520978,1817.520978,1817.520978,1817.520978,
   ** Warning ** SimHVAC: Maximum iterations (20) exceeded for all HVAC loops, at ANNUAL, 03/19 07:15 - 07:30
   **   ~~~   ** The solution for one or more of the Air Loop HVAC systems did not appear to converge
   **   ~~~   ** Air System Named = CENTRAL SYSTEM did not converge for mass flow rate
   **   ~~~   ** Check values should be zero. Most Recent values listed first.
   **   ~~~   ** Demand-to-Supply interface mass flow rate check value iteration history trace: 5.125461E-002,5.125461E-002,5.125461E-002,5.125461E-002,5.125461E-002,5.125461E-002,5.125461E-002,5.125461E-002,5.125461E-002,5.125461E-002,
   **   ~~~   ** Supply-to-demand interface deck 1 mass flow rate check value iteration history trace: 5.125461E-002,5.125461E-002,5.125461E-002,5.125461E-002,5.125461E-002,5.125461E-002,5.125461E-002,5.125461E-002,5.125461E-002,5.125461E-002,
   **   ~~~   ** Air System Named = CENTRAL SYSTEM did not converge for energy
   **   ~~~   ** Check values should be zero. Most Recent values listed first.
   **   ~~~   ** Demand-to-Supply interface energy check value iteration history trace: 1015.734057,1015.734057,1015.734056,1015.734056,1015.734056,1015.734056,1015.734056,1015.734056,1015.734056,1015.734056,
   **   ~~~   ** Supply-to-demand interface deck 1 energy check value iteration history trace: 1770.656504,1770.656504,1770.656504,1770.656503,1770.656503,1770.656503,1770.656503,1770.656503,1770.656503,1770.656503,
   ** Warning ** SimHVAC: Maximum iterations (20) exceeded for all HVAC loops, at ANNUAL, 04/04 08:34 - 08:36
   **   ~~~   ** The solution for one or more of the Air Loop HVAC systems did not appear to converge
   **   ~~~   ** Air System Named = CENTRAL SYSTEM did not converge for mass flow rate
   **   ~~~   ** Check values should be zero. Most Recent values listed first.
   **   ~~~   ** Demand-to-Supply interface mass flow rate check value iteration history trace: 0.270133,0.270133,0.270133,0.270133,0.270133,0.270133,0.270133,0.270133,0.270133,0.270133,
   **   ~~~   ** Supply-to-demand interface deck 1 mass flow rate check value iteration history trace: 0.270133,0.270133,0.270133,0.270133,0.270133,0.270133,0.270133,0.270133,0.270133,0.270133,
   **   ~~~   ** Air System Named = CENTRAL SYSTEM did not converge for energy
   **   ~~~   ** Check values should be zero. Most Recent values listed first.
   **   ~~~   ** Demand-to-Supply interface energy check value iteration history trace: 6403.177720,6403.177722,6403.177724,6403.177726,6403.177728,6403.177730,6403.177732,6403.177734,6403.177736,6403.177738,
   **   ~~~   ** Supply-to-demand interface deck 1 energy check value iteration history trace: 3311.160473,3311.160474,3311.160475,3311.160476,3311.160477,3311.160478,3311.160479,3311.160480,3311.160481,3311.160482,
   ** Warning ** SimHVAC: Maximum iterations (20) exceeded for all HVAC loops, at ANNUAL, 04/04 08:58 - 09:00
   **   ~~~   ** The solution for one or more of the Air Loop HVAC systems did not appear to converge
   **   ~~~   ** Air System Named = CENTRAL SYSTEM did not converge for mass flow rate
   **   ~~~   ** Check values should be zero. Most Recent values listed first.
   **   ~~~   ** Demand-to-Supply interface mass flow rate check value iteration history trace: 0.153976,0.153976,0.153976,0.153976,0.153976,0.153976,0.153976,0.153976,0.153976,0.153976,
   **   ~~~   ** Supply-to-demand interface deck 1 mass flow rate check value iteration history trace: 0.153976,0.153976,0.153976,0.153976,0.153976,0.153976,0.153976,0.153976,0.153976,0.153976,
   **   ~~~   ** Air System Named = CENTRAL SYSTEM did not converge for energy
   **   ~~~   ** Check values should be zero. Most Recent values listed first.
   **   ~~~   ** Demand-to-Supply interface energy check value iteration history trace: 3633.800348,3633.800349,3633.800350,3633.800351,3633.800352,3633.800353,3633.800355,3633.800356,3633.800357,3633.800358,
   **   ~~~   ** Supply-to-demand interface deck 1 energy check value iteration history trace: 1862.111544,1862.111545,1862.111545,1862.111546,1862.111546,1862.111547,1862.111547,1862.111548,1862.111549,1862.111549,
   ** Warning ** SimHVAC: Maximum iterations (20) exceeded for all HVAC loops, at ANNUAL, 04/11 08:21 - 08:22
   **   ~~~   ** The solution for one or more of the Air Loop HVAC systems did not appear to converge
   **   ~~~   ** Air System Named = CENTRAL SYSTEM did not converge for mass flow rate
   **   ~~~   ** Check values should be zero. Most Recent values listed first.
   **   ~~~   ** Demand-to-Supply interface mass flow rate check value iteration history trace: 0.263619,0.263619,0.263619,0.263619,0.263619,0.263619,0.263619,0.263619,0.263619,0.263619,
   **   ~~~   ** Supply-to-demand interface deck 1 mass flow rate check value iteration history trace: 0.263619,0.263619,0.263619,0.263619,0.263619,0.263619,0.263619,0.263619,0.263619,0.263619,
   **   ~~~   ** Air System Named = CENTRAL SYSTEM did not converge for energy
   **   ~~~   ** Check values should be zero. Most Recent values listed first.
   **   ~~~   ** Demand-to-Supply interface energy check value iteration history trace: 6242.304632,6242.304633,6242.304633,6242.304634,6242.304634,6242.304635,6242.304635,6242.304635,6242.304636,6242.304636,
   **   ~~~   ** Supply-to-demand interface deck 1 energy check value iteration history trace: 3173.909149,3173.909149,3173.909150,3173.909150,3173.909150,3173.909150,3173.909151,3173.909151,3173.909151,3173.909151,
   ** Warning ** SimHVAC: Maximum iterations (20) exceeded for all HVAC loops, at ANNUAL, 04/11 09:15 - 09:30
   **   ~~~   ** The solution for one or more of the Air Loop HVAC systems did not appear to converge
   **   ~~~   ** Air System Named = CENTRAL SYSTEM did not converge for mass flow rate
   **   ~~~   ** Check values should be zero. Most Recent values listed first.
   **   ~~~   ** Demand-to-Supply interface mass flow rate check value iteration history trace: 0.104732,0.104732,0.104732,0.104732,0.104732,0.104732,0.104732,0.104732,0.104732,0.104732,
   **   ~~~   ** Supply-to-demand interface deck 1 mass flow rate check value iteration history trace: 0.104732,0.104732,0.104732,0.104732,0.104732,0.104732,0.104732,0.104732,0.104732,0.104732,
   **   ~~~   ** Air System Named = CENTRAL SYSTEM did not converge for energy
   **   ~~~   ** Check values should be zero. Most Recent values listed first.
   **   ~~~   ** Demand-to-Supply interface energy check value iteration history trace: 2499.777386,2499.777386,2499.777386,2499.777386,2499.777387,2499.777387,2499.777387,2499.777387,2499.777387,2499.777387,
   **   ~~~   ** Supply-to-demand interface deck 1 energy check value iteration history trace: 1274.547887,1274.547888,1274.547888,1274.547888,1274.547888,1274.547888,1274.547888,1274.547888,1274.547888,1274.547888,
   ** Warning ** SimHVAC: Maximum iterations (20) exceeded for all HVAC loops, at ANNUAL, 04/13 06:45 - 07:00
   **   ~~~   ** The solution for one or more of the Air Loop HVAC systems did not appear to converge
   **   ~~~   ** Air System Named = CENTRAL SYSTEM did not converge for mass flow rate
   **   ~~~   ** Check values should be zero. Most Recent values listed first.
   **   ~~~   ** Demand-to-Supply interface mass flow rate check value iteration history trace: 3.460100E-002,3.460100E-002,3.460100E-002,3.460100E-002,3.460100E-002,3.460100E-002,3.460100E-002,3.460100E-002,3.460100E-002,3.460100E-002,
   **   ~~~   ** Supply-to-demand interface deck 1 mass flow rate check value iteration history trace: 3.460100E-002,3.460100E-002,3.460100E-002,3.460100E-002,3.460100E-002,3.460100E-002,3.460100E-002,3.460100E-002,3.460100E-002,3.460100E-002,
   **   ~~~   ** Air System Named = CENTRAL SYSTEM did not converge for energy
   **   ~~~   ** Check values should be zero. Most Recent values listed first.
   **   ~~~   ** Demand-to-Supply interface energy check value iteration history trace: 684.569841,684.569841,684.569841,684.569841,684.569841,684.569841,684.569841,684.569841,684.569841,684.569841,
   **   ~~~   ** Supply-to-demand interface deck 1 energy check value iteration history trace: 1171.036620,1171.036620,1171.036620,1171.036620,1171.036620,1171.036620,1171.036620,1171.036620,1171.036620,1171.036619,
   ** Warning ** SimHVAC: Maximum iterations (20) exceeded for all HVAC loops, at ANNUAL, 10/30 07:15 - 07:30
   **   ~~~   ** The solution for one or more of the Air Loop HVAC systems did not appear to converge
   **   ~~~   ** Air System Named = CENTRAL SYSTEM did not converge for mass flow rate
   **   ~~~   ** Check values should be zero. Most Recent values listed first.
   **   ~~~   ** Demand-to-Supply interface mass flow rate check value iteration history trace: 6.765634E-002,6.765634E-002,6.765634E-002,6.765634E-002,6.765634E-002,6.765634E-002,6.765634E-002,6.765634E-002,6.765634E-002,6.765634E-002,
   **   ~~~   ** Supply-to-demand interface deck 1 mass flow rate check value iteration history trace: 6.765634E-002,6.765634E-002,6.765634E-002,6.765634E-002,6.765634E-002,6.765634E-002,6.765634E-002,6.765634E-002,6.765634E-002,6.765634E-002,
   **   ~~~   ** Air System Named = CENTRAL SYSTEM did not converge for energy
   **   ~~~   ** Check values should be zero. Most Recent values listed first.
   **   ~~~   ** Demand-to-Supply interface energy check value iteration history trace: 1337.660828,1337.660828,1337.660828,1337.660828,1337.660828,1337.660828,1337.660828,1337.660828,1337.660827,1337.660827,
   **   ~~~   ** Supply-to-demand interface deck 1 energy check value iteration history trace: 2268.358556,2268.358556,2268.358556,2268.358556,2268.358556,2268.358556,2268.358556,2268.358555,2268.358555,2268.358555,
   ** Warning ** SimHVAC: Maximum iterations (20) exceeded for all HVAC loops, at ANNUAL, 11/05 08:25 - 08:27
   **   ~~~   ** The solution for one or more of the Air Loop HVAC systems did not appear to converge
   **   ~~~   ** Air System Named = CENTRAL SYSTEM did not converge for mass flow rate
   **   ~~~   ** Check values should be zero. Most Recent values listed first.
   **   ~~~   ** Demand-to-Supply interface mass flow rate check value iteration history trace: 5.247290E-002,5.247290E-002,5.247290E-002,5.247290E-002,5.247290E-002,5.247290E-002,5.247290E-002,5.247290E-002,5.247290E-002,5.247290E-002,
   **   ~~~   ** Supply-to-demand interface deck 1 mass flow rate check value iteration history trace: 5.247290E-002,5.247290E-002,5.247290E-002,5.247290E-002,5.247290E-002,5.247290E-002,5.247290E-002,5.247290E-002,5.247290E-002,5.247290E-002,
   **   ~~~   ** Air System Named = CENTRAL SYSTEM did not converge for energy
   **   ~~~   ** Check values should be zero. Most Recent values listed first.
   **   ~~~   ** Demand-to-Supply interface energy check value iteration history trace: 1034.979247,1034.979247,1034.979247,1034.979247,1034.979247,1034.979247,1034.979247,1034.979246,1034.979246,1034.979246,
   **   ~~~   ** Supply-to-demand interface deck 1 energy check value iteration history trace: 1764.026354,1764.026354,1764.026354,1764.026354,1764.026354,1764.026354,1764.026354,1764.026354,1764.026354,1764.026354,
   ** Warning ** SimHVAC: Maximum iterations (20) exceeded for all HVAC loops, at ANNUAL, 11/05 12:38 - 12:45
   **   ~~~   ** The solution for one or more of the Air Loop HVAC systems did not appear to converge
   **   ~~~   ** Air System Named = CENTRAL SYSTEM did not converge for mass flow rate
   **   ~~~   ** Check values should be zero. Most Recent values listed first.
   **   ~~~   ** Demand-to-Supply interface mass flow rate check value iteration history trace: 4.432084E-002,4.432084E-002,4.432084E-002,4.432084E-002,4.432084E-002,4.432084E-002,4.432084E-002,4.432084E-002,4.432084E-002,4.432084E-002,
   **   ~~~   ** Supply-to-demand interface deck 1 mass flow rate check value iteration history trace: 4.432084E-002,4.432084E-002,4.432084E-002,4.432084E-002,4.432084E-002,4.432084E-002,4.432084E-002,4.432084E-002,4.432084E-002,4.432084E-002,
   **   ~~~   ** Air System Named = CENTRAL SYSTEM did not converge for energy
   **   ~~~   ** Check values should be zero. Most Recent values listed first.
   **   ~~~   ** Demand-to-Supply interface energy check value iteration history trace: 1042.578124,1042.578124,1042.578124,1042.578124,1042.578124,1042.578124,1042.578124,1042.578124,1042.578124,1042.578124,
   **   ~~~   ** Supply-to-demand interface deck 1 energy check value iteration history trace: 400.322742,400.322742,400.322743,400.322743,400.322743,400.322743,400.322743,400.322743,400.322743,400.322743,
   ** Warning ** SimHVAC: Maximum iterations (20) exceeded for all HVAC loops, at ANNUAL, 11/06 19:45 - 20:00
   **   ~~~   ** The solution for one or more of the Air Loop HVAC systems did not appear to converge
   **   ~~~   ** Air System Named = CENTRAL SYSTEM did not converge for mass flow rate
   **   ~~~   ** Check values should be zero. Most Recent values listed first.
   **   ~~~   ** Demand-to-Supply interface mass flow rate check value iteration history trace: 5.417843E-002,5.417843E-002,5.417843E-002,5.417843E-002,5.417843E-002,5.417843E-002,5.417843E-002,5.417843E-002,5.417843E-002,5.417843E-002,
   **   ~~~   ** Supply-to-demand interface deck 1 mass flow rate check value iteration history trace: 5.417843E-002,5.417843E-002,5.417843E-002,5.417843E-002,5.417843E-002,5.417843E-002,5.417843E-002,5.417843E-002,5.417843E-002,5.417843E-002,
   **   ~~~   ** Air System Named = CENTRAL SYSTEM did not converge for energy
   **   ~~~   ** Check values should be zero. Most Recent values listed first.
   **   ~~~   ** Demand-to-Supply interface energy check value iteration history trace: 1285.661881,1285.661881,1285.661881,1285.661881,1285.661881,1285.661881,1285.661881,1285.661882,1285.661882,1285.661882,
   **   ~~~   ** Supply-to-demand interface deck 1 energy check value iteration history trace: 477.619357,477.619357,477.619357,477.619358,477.619358,477.619358,477.619358,477.619358,477.619358,477.619358,
   ** Warning ** SimHVAC: Maximum iterations (20) exceeded for all HVAC loops, at ANNUAL, 11/07 20:30 - 20:45
   **   ~~~   ** The solution for one or more of the Air Loop HVAC systems did not appear to converge
   **   ~~~   ** Air System Named = CENTRAL SYSTEM did not converge for mass flow rate
   **   ~~~   ** Check values should be zero. Most Recent values listed first.
   **   ~~~   ** Demand-to-Supply interface mass flow rate check value iteration history trace: 7.386192E-002,7.386192E-002,7.386192E-002,7.386192E-002,7.386192E-002,7.386192E-002,7.386192E-002,7.386192E-002,7.386192E-002,7.386192E-002,
   **   ~~~   ** Supply-to-demand interface deck 1 mass flow rate check value iteration history trace: 7.386192E-002,7.386192E-002,7.386192E-002,7.386192E-002,7.386192E-002,7.386192E-002,7.386192E-002,7.386192E-002,7.386192E-002,7.386192E-002,
   **   ~~~   ** Air System Named = CENTRAL SYSTEM did not converge for energy
   **   ~~~   ** Check values should be zero. Most Recent values listed first.
   **   ~~~   ** Demand-to-Supply interface energy check value iteration history trace: 1758.065978,1758.065978,1758.065979,1758.065979,1758.065979,1758.065979,1758.065979,1758.065979,1758.065979,1758.065979,
   **   ~~~   ** Supply-to-demand interface deck 1 energy check value iteration history trace: 666.840567,666.840567,666.840567,666.840567,666.840567,666.840567,666.840567,666.840567,666.840567,666.840567,
   ** Warning ** SimHVAC: Maximum iterations (20) exceeded for all HVAC loops, at ANNUAL, 12/10 20:00 - 20:08
   **   ~~~   ** The solution for one or more of the Air Loop HVAC systems did not appear to converge
   **   ~~~   ** Air System Named = CENTRAL SYSTEM did not converge for mass flow rate
   **   ~~~   ** Check values should be zero. Most Recent values listed first.
   **   ~~~   ** Demand-to-Supply interface mass flow rate check value iteration history trace: 9.321829E-002,9.321829E-002,9.321829E-002,9.321829E-002,9.321829E-002,9.321829E-002,9.321829E-002,9.321829E-002,9.321829E-002,9.321829E-002,
   **   ~~~   ** Supply-to-demand interface deck 1 mass flow rate check value iteration history trace: 9.321829E-002,9.321829E-002,9.321829E-002,9.321829E-002,9.321829E-002,9.321829E-002,9.321829E-002,9.321829E-002,9.321829E-002,9.321829E-002,
   **   ~~~   ** Air System Named = CENTRAL SYSTEM did not converge for energy
   **   ~~~   ** Check values should be zero. Most Recent values listed first.
   **   ~~~   ** Demand-to-Supply interface energy check value iteration history trace: 1877.801228,1877.801228,1877.801228,1877.801228,1877.801228,1877.801228,1877.801227,1877.801227,1877.801227,1877.801227,
   **   ~~~   ** Supply-to-demand interface deck 1 energy check value iteration history trace: 2709.421467,2709.421466,2709.421466,2709.421466,2709.421466,2709.421465,2709.421465,2709.421465,2709.421465,2709.421464,
   ************* Simulation Error Summary *************
   ** Warning ** The following Report Variables were requested but not generated -- check.rdd file
   **   ~~~   ** Either the IDF did not contain these elements, the variable name is misspelled,
   **   ~~~   ** or the requested variable is an advanced output which requires Output : Diagnostics, DisplayAdvancedReportVariables;
   ************* Key=*, VarName=BASEBOARD TOTAL HEATING ENERGY, Frequency=
   ************* Key=*, VarName=WATER HEATER NATURALGAS ENERGY, Frequency=
   ************* Key=*, VarName=COOLING COIL TOTAL HEATING ENERGY, Frequency=
   ************* There are 34 unused schedules in input.
   ************* There are 388 unused week schedules in input.
   ************* There are 396 unused day schedules in input.
   ************* Use Output:Diagnostics,DisplayUnusedSchedules; to see them.
   *************
   ************* ===== Recurring Error Summary =====
   ************* The following recurring error messages occurred.
   *************
   *************  ** Warning ** "TOTAL HOT WATER LOAD" - Target water temperature should be less than or equal to the hot water temperature error continues...
   *************  **   ~~~   **   This error occurred 70145 total times;
   *************  **   ~~~   **   during Warmup 0 times;
   *************  **   ~~~   **   during Sizing 0 times.
   *************  **   ~~~   **   Max=6.630469  Min=4.266670E-005
   *************
   *************  ** Warning ** SimHVAC: Exceeding Maximum iterations for all HVAC loops, during ANNUAL continues
   *************  **   ~~~   **   This error occurred 4 total times;
   *************  **   ~~~   **   during Warmup 0 times;
   *************  **   ~~~   **   during Sizing 0 times.
   *************
   *************
   ************* ===== Final Error Summary =====
   ************* The following error categories occurred.  Consider correcting or noting.
   ************* Nominally Unused Constructions
   ************* ..The nominally unused constructions warning is provided to alert you to potential conditions that can cause
   ************* ..extra time during simulation. Each construction is calculated by the algorithm indicated in the HeatBalanceAlgorithm
   ************* ..object. You may remove the constructions indicated (when you use the DisplayExtraWarnings option).
   *************
   ************* EnergyPlus Warmup Error Summary. During Warmup: 1 Warning; 0 Severe Errors.
   ************* EnergyPlus Sizing Error Summary. During Sizing: 4 Warning; 0 Severe Errors.
   ************* EnergyPlus Completed Successfully-- 70180 Warning; 0 Severe Errors; Elapsed Time=00hr 01min 44.38sec
