Program Version,EnergyPlus, Version 22.2.0-c249759bad, YMD=2023.08.31 12:58,
   ************* Beginning Zone Sizing Calculations
   ** Warning ** ProcessScheduleInput: Schedule:Constant="ALWAYS ON DISCRETE", Schedule Type Limits Name="ONOFF" not found -- will not be validated
   ** Warning ** Foundation:Kiva="KIVA FOUNDATION", no Interior Horizontal Insulation Material Name defined
   **   ~~~   ** Interior Horizontal Insulation Depth will not be used.
   ** Warning ** CheckUsedConstructions: There are 15 nominally unused constructions in input.
   **   ~~~   ** Each Unused construction is shown.
   ************* Construction=INTERIOR FLOOR
   ************* Construction=INTERIOR WINDOW
   ************* Construction=EXTERIOR DOOR
   ************* Construction=INTERIOR DOOR
   ************* Construction=GABLE CONSTRUCTION
   ************* Construction=CRAWL_FLOOR
   ************* Construction=INSULATED PIPE
   ************* Construction=PLAIN PIPE
   ************* Construction=TDD PIPE
   ************* Construction=TDD DOME
   ************* Construction=TDD DIFFUSER
   ************* Construction=CRAWL WALL
   ************* Construction=CEILING-FLOOR-LAYER
   ************* Construction=SLAB CONSTRUCTION W FULL R10 INSULATION
   ************* Construction=SLAB CONSTRUCTION W FULL R5 INSULATION
   ** Warning ** GetDXCoils: Coil:Heating:DX:SingleSpeed="DX_HEATING_COIL" curve values
   **   ~~~   ** ... Defrost Energy Input Ratio Function of Temperature Curve Name = DEFROSTEIR output is not equal to 1.0 (+ or - 10%) at rated conditions.
   **   ~~~   ** ... Curve output at rated conditions = 0.152
   ************* Beginning System Sizing Calculations
   ************* Beginning Plant Sizing Calculations
   ** Warning ** SizeDXCoil Coil:Cooling:DX:SingleSpeed DX_COOLING_COIL
   **   ~~~   ** ...Gross Rated Total Cooling Capacity [W] will be limited by the maximum rated volume flow per rated total capacity ratio.
   **   ~~~   ** ...DX coil volume flow rate ( m3/s ) = 0.330640
   **   ~~~   ** ...Requested capacity ( W ) = 4754.269
   **   ~~~   ** ...Requested flow/capacity ratio ( m3/s/W ) = 6.954E-005
   **   ~~~   ** ...Maximum flow/capacity ratio ( m3/s/W ) = 6.041E-005
   **   ~~~   ** ...Adjusted capacity ( W ) = 5473.271
   ** Warning ** Coil:WaterHeating:AirToWaterHeatPump:Wrapped "HEAT PUMP WATER HEATER EVAPORATOR": Rated air volume flow rate per watt of rated total water heating capacity is out of range
   **   ~~~   ** Min Rated Vol Flow Per Watt=[4.027E-005], Rated Vol Flow Per Watt=[1.386E-004], Max Rated Vol Flow Per Watt=[8.056E-005]. See Input-Output Reference Manual for valid range.
   ** Warning ** Water heater = WATER HEATER TANK:  Recovery Efficiency and Energy Factor could not be calculated during the test for standard ratings
   **   ~~~   ** Setpoint was never recovered and/or heater never turned on
   ** Warning ** Check input. Pump nominal power or motor efficiency is set to 0, for pump=MAINS PRESSURE
   ** Warning ** Output:Meter: invalid Key Name="ELECTRIC_RANGE:INTERIOREQUIPMENT:ELECTRICITY" - not found.
   ** Warning ** Output:Meter: invalid Key Name="ELECTRIC_DRYER:INTERIOREQUIPMENT:ELECTRICITY" - not found.
   ** Warning ** Output:Meter: invalid Key Name="HEATRECOVERY:ELECTRICITY" - not found.
   ** Warning ** Output:Meter: invalid Key Name="HEATING:NATURALGAS" - not found.
   ** Warning ** Output:Meter: invalid Key Name="WATERSYSTEMS:NATURALGAS" - not found.
   ** Warning ** Output:Meter: invalid Key Name="PROPANE:FACILITY" - not found.
   ** Warning ** Output:Meter: invalid Key Name="HEATING:PROPANE" - not found.
   ************* Testing Individual Branch Integrity
   ************* All Branches passed integrity testing
   ************* Testing Individual Supply Air Path Integrity
   ************* All Supply Air Paths passed integrity testing
   ************* Testing Individual Return Air Path Integrity
   ************* All Return Air Paths passed integrity testing
   ************* No node connection errors were found.
   ************* Beginning Simulation
   ** Warning ** AirflowNetwork::Solver::validate_distribution: Heat pump water heater is simulated along with an AirflowNetwork but is not included in the AirflowNetwork.
   ** Warning ** CalcEquipmentFlowRates: "TOTAL HOT WATER LOAD" - Target water temperature is greater than the hot water temperature by (2.13 C)
   **   ~~~   **  Environment=EXTREME_WINTER, at Simulation time=01/01 03:45 - 04:00
   **   ~~~   ** ...target water temperature     = 53.33 C
   **   ~~~   ** ...hot water temperature        = 51.20 C
   **   ~~~   ** ...Target water temperature should be less than or equal to the hot water temperature. Verify temperature setpoints and schedules.
   ** Warning ** SimHVAC: Maximum iterations (20) exceeded for all HVAC loops, at ANNUAL, 03/22 21:45 - 22:00
   **   ~~~   ** The solution for one or more of the Air Loop HVAC systems did not appear to converge
   **   ~~~   ** Air System Named = CENTRAL SYSTEM did not converge for mass flow rate
   **   ~~~   ** Check values should be zero. Most Recent values listed first.
   **   ~~~   ** Demand-to-Supply interface mass flow rate check value iteration history trace: 7.658390E-002,7.658390E-002,7.658390E-002,7.658390E-002,7.658390E-002,7.658390E-002,7.658390E-002,7.658390E-002,7.658390E-002,7.658390E-002,
   **   ~~~   ** Supply-to-demand interface deck 1 mass flow rate check value iteration history trace: 7.658390E-002,7.658390E-002,7.658390E-002,7.658390E-002,7.658390E-002,7.658390E-002,7.658390E-002,7.658390E-002,7.658390E-002,7.658390E-002,
   **   ~~~   ** Air System Named = CENTRAL SYSTEM did not converge for energy
   **   ~~~   ** Check values should be zero. Most Recent values listed first.
   **   ~~~   ** Demand-to-Supply interface energy check value iteration history trace: 1518.077408,1518.077406,1518.077405,1518.077403,1518.077401,1518.077400,1518.077398,1518.077397,1518.077395,1518.077393,
   **   ~~~   ** Supply-to-demand interface deck 1 energy check value iteration history trace: 2310.442456,2310.442453,2310.442451,2310.442448,2310.442446,2310.442443,2310.442441,2310.442438,2310.442436,2310.442433,
   ** Warning ** SimHVAC: Maximum iterations (20) exceeded for all HVAC loops, at ANNUAL, 06/15 08:00 - 08:08
   **   ~~~   ** The solution for one or more of the Air Loop HVAC systems did not appear to converge
   **   ~~~   ** Air System Named = CENTRAL SYSTEM did not converge for mass flow rate
   **   ~~~   ** Check values should be zero. Most Recent values listed first.
   **   ~~~   ** Demand-to-Supply interface mass flow rate check value iteration history trace: 6.407187E-002,6.407187E-002,6.407187E-002,6.407187E-002,6.407187E-002,6.407187E-002,6.407187E-002,6.407187E-002,6.407187E-002,6.407187E-002,
   **   ~~~   ** Supply-to-demand interface deck 1 mass flow rate check value iteration history trace: 6.407187E-002,6.407187E-002,6.407187E-002,6.407187E-002,6.407187E-002,6.407187E-002,6.407187E-002,6.407187E-002,6.407187E-002,6.407187E-002,
   **   ~~~   ** Air System Named = CENTRAL SYSTEM did not converge for energy
   **   ~~~   ** Check values should be zero. Most Recent values listed first.
   **   ~~~   ** Demand-to-Supply interface energy check value iteration history trace: 1253.705216,1253.705215,1253.705214,1253.705213,1253.705212,1253.705211,1253.705210,1253.705209,1253.705208,1253.705207,
   **   ~~~   ** Supply-to-demand interface deck 1 energy check value iteration history trace: 2252.316853,2252.316852,2252.316850,2252.316848,2252.316846,2252.316844,2252.316843,2252.316841,2252.316839,2252.316837,
   ** Warning ** SimHVAC: Maximum iterations (20) exceeded for all HVAC loops, at ANNUAL, 08/01 07:10 - 07:13
   **   ~~~   ** The solution for one or more of the Air Loop HVAC systems did not appear to converge
   **   ~~~   ** Air System Named = CENTRAL SYSTEM did not converge for mass flow rate
   **   ~~~   ** Check values should be zero. Most Recent values listed first.
   **   ~~~   ** Demand-to-Supply interface mass flow rate check value iteration history trace: 0.125955,0.125955,0.125955,0.125955,0.125955,0.125955,0.125955,0.125955,0.125955,0.125955,
   **   ~~~   ** Supply-to-demand interface deck 1 mass flow rate check value iteration history trace: 0.125955,0.125955,0.125955,0.125955,0.125955,0.125955,0.125955,0.125955,0.125955,0.125955,
   **   ~~~   ** Air System Named = CENTRAL SYSTEM did not converge for energy
   **   ~~~   ** Check values should be zero. Most Recent values listed first.
   **   ~~~   ** Demand-to-Supply interface energy check value iteration history trace: 2975.180838,2975.180840,2975.180842,2975.180845,2975.180847,2975.180849,2975.180852,2975.180854,2975.180856,2975.180858,
   **   ~~~   ** Supply-to-demand interface deck 1 energy check value iteration history trace: 1438.343768,1438.343769,1438.343770,1438.343771,1438.343772,1438.343773,1438.343775,1438.343776,1438.343777,1438.343778,
   ** Warning ** SimHVAC: Maximum iterations (20) exceeded for all HVAC loops, at ANNUAL, 09/26 07:30 - 07:45
   **   ~~~   ** The solution for one or more of the Air Loop HVAC systems did not appear to converge
   **   ~~~   ** Air System Named = CENTRAL SYSTEM did not converge for mass flow rate
   **   ~~~   ** Check values should be zero. Most Recent values listed first.
   **   ~~~   ** Demand-to-Supply interface mass flow rate check value iteration history trace: 6.499048E-002,6.499048E-002,6.499048E-002,6.499048E-002,6.499048E-002,6.499048E-002,6.499048E-002,6.499048E-002,6.499048E-002,6.499048E-002,
   **   ~~~   ** Supply-to-demand interface deck 1 mass flow rate check value iteration history trace: 6.499048E-002,6.499048E-002,6.499048E-002,6.499048E-002,6.499048E-002,6.499048E-002,6.499048E-002,6.499048E-002,6.499048E-002,6.499048E-002,
   **   ~~~   ** Air System Named = CENTRAL SYSTEM did not converge for energy
   **   ~~~   ** Check values should be zero. Most Recent values listed first.
   **   ~~~   ** Demand-to-Supply interface energy check value iteration history trace: 1288.261413,1288.261412,1288.261411,1288.261411,1288.261410,1288.261409,1288.261408,1288.261408,1288.261407,1288.261406,
   **   ~~~   ** Supply-to-demand interface deck 1 energy check value iteration history trace: 2307.217720,2307.217718,2307.217717,2307.217716,2307.217714,2307.217713,2307.217711,2307.217710,2307.217709,2307.217707,
   ** Warning ** SimHVAC: Maximum iterations (20) exceeded for all HVAC loops, at ANNUAL, 10/04 09:00 - 09:15
   **   ~~~   ** The solution for one or more of the Air Loop HVAC systems did not appear to converge
   **   ~~~   ** Air System Named = CENTRAL SYSTEM did not converge for mass flow rate
   **   ~~~   ** Check values should be zero. Most Recent values listed first.
   **   ~~~   ** Demand-to-Supply interface mass flow rate check value iteration history trace: 6.888749E-002,6.888749E-002,6.888749E-002,6.888749E-002,6.888749E-002,6.888749E-002,6.888749E-002,6.888749E-002,6.888749E-002,6.888749E-002,
   **   ~~~   ** Supply-to-demand interface deck 1 mass flow rate check value iteration history trace: 6.888749E-002,6.888749E-002,6.888749E-002,6.888749E-002,6.888749E-002,6.888749E-002,6.888749E-002,6.888749E-002,6.888749E-002,6.888749E-002,
   **   ~~~   ** Air System Named = CENTRAL SYSTEM did not converge for energy
   **   ~~~   ** Check values should be zero. Most Recent values listed first.
   **   ~~~   ** Demand-to-Supply interface energy check value iteration history trace: 1364.996579,1364.996578,1364.996576,1364.996575,1364.996574,1364.996573,1364.996571,1364.996570,1364.996569,1364.996568,
   **   ~~~   ** Supply-to-demand interface deck 1 energy check value iteration history trace: 2401.426880,2401.426878,2401.426876,2401.426873,2401.426871,2401.426869,2401.426867,2401.426865,2401.426862,2401.426860,
   ** Warning ** SimHVAC: Maximum iterations (20) exceeded for all HVAC loops, at ANNUAL, 10/04 09:00 - 09:08
   **   ~~~   ** The solution for one or more of the Air Loop HVAC systems did not appear to converge
   **   ~~~   ** Air System Named = CENTRAL SYSTEM did not converge for mass flow rate
   **   ~~~   ** Check values should be zero. Most Recent values listed first.
   **   ~~~   ** Demand-to-Supply interface mass flow rate check value iteration history trace: 6.901689E-002,6.901689E-002,6.901689E-002,6.901689E-002,6.901689E-002,6.901689E-002,6.901689E-002,6.901689E-002,6.901689E-002,6.901689E-002,
   **   ~~~   ** Supply-to-demand interface deck 1 mass flow rate check value iteration history trace: 6.901689E-002,6.901689E-002,6.901689E-002,6.901689E-002,6.901689E-002,6.901689E-002,6.901689E-002,6.901689E-002,6.901689E-002,6.901689E-002,
   **   ~~~   ** Air System Named = CENTRAL SYSTEM did not converge for energy
   **   ~~~   ** Check values should be zero. Most Recent values listed first.
   **   ~~~   ** Demand-to-Supply interface energy check value iteration history trace: 1367.540459,1367.540458,1367.540457,1367.540456,1367.540454,1367.540453,1367.540452,1367.540451,1367.540449,1367.540448,
   **   ~~~   ** Supply-to-demand interface deck 1 energy check value iteration history trace: 2405.879861,2405.879858,2405.879856,2405.879854,2405.879852,2405.879850,2405.879847,2405.879845,2405.879843,2405.879841,
   ** Warning ** SimHVAC: Maximum iterations (20) exceeded for all HVAC loops, at ANNUAL, 10/20 07:30 - 07:45
   **   ~~~   ** The solution for one or more of the Air Loop HVAC systems did not appear to converge
   **   ~~~   ** Air System Named = CENTRAL SYSTEM did not converge for mass flow rate
   **   ~~~   ** Check values should be zero. Most Recent values listed first.
   **   ~~~   ** Demand-to-Supply interface mass flow rate check value iteration history trace: 5.168522E-002,5.168522E-002,5.168522E-002,5.168522E-002,5.168522E-002,5.168522E-002,5.168522E-002,5.168522E-002,5.168522E-002,5.168522E-002,
   **   ~~~   ** Supply-to-demand interface deck 1 mass flow rate check value iteration history trace: 5.168522E-002,5.168522E-002,5.168522E-002,5.168522E-002,5.168522E-002,5.168522E-002,5.168522E-002,5.168522E-002,5.168522E-002,5.168522E-002,
   **   ~~~   ** Air System Named = CENTRAL SYSTEM did not converge for energy
   **   ~~~   ** Check values should be zero. Most Recent values listed first.
   **   ~~~   ** Demand-to-Supply interface energy check value iteration history trace: 1024.046570,1024.046569,1024.046568,1024.046568,1024.046567,1024.046566,1024.046566,1024.046565,1024.046564,1024.046564,
   **   ~~~   ** Supply-to-demand interface deck 1 energy check value iteration history trace: 1763.298559,1763.298558,1763.298557,1763.298556,1763.298554,1763.298553,1763.298552,1763.298551,1763.298550,1763.298548,
   ** Warning ** SimHVAC: Maximum iterations (20) exceeded for all HVAC loops, at ANNUAL, 12/17 16:15 - 16:20
   **   ~~~   ** The solution for one or more of the Air Loop HVAC systems did not appear to converge
   **   ~~~   ** Air System Named = CENTRAL SYSTEM did not converge for mass flow rate
   **   ~~~   ** Check values should be zero. Most Recent values listed first.
   **   ~~~   ** Demand-to-Supply interface mass flow rate check value iteration history trace: 6.901628E-002,6.901628E-002,6.901628E-002,6.901628E-002,6.901628E-002,6.901628E-002,6.901628E-002,6.901628E-002,6.901628E-002,6.901628E-002,
   **   ~~~   ** Supply-to-demand interface deck 1 mass flow rate check value iteration history trace: 6.901628E-002,6.901628E-002,6.901628E-002,6.901628E-002,6.901628E-002,6.901628E-002,6.901628E-002,6.901628E-002,6.901628E-002,6.901628E-002,
   **   ~~~   ** Air System Named = CENTRAL SYSTEM did not converge for energy
   **   ~~~   ** Check values should be zero. Most Recent values listed first.
   **   ~~~   ** Demand-to-Supply interface energy check value iteration history trace: 1364.459183,1364.459182,1364.459181,1364.459180,1364.459178,1364.459177,1364.459176,1364.459175,1364.459174,1364.459173,
   **   ~~~   ** Supply-to-demand interface deck 1 energy check value iteration history trace: 2322.079935,2322.079933,2322.079931,2322.079929,2322.079927,2322.079925,2322.079923,2322.079921,2322.079919,2322.079917,
   ************* Simulation Error Summary *************
   ** Warning ** The following Report Variables were requested but not generated -- check.rdd file
   **   ~~~   ** Either the IDF did not contain these elements, the variable name is misspelled,
   **   ~~~   ** or the requested variable is an advanced output which requires Output : Diagnostics, DisplayAdvancedReportVariables;
   ************* Key=*, VarName=BASEBOARD TOTAL HEATING ENERGY, Frequency=
   ************* Key=*, VarName=WATER HEATER NATURALGAS ENERGY, Frequency=
   ************* Key=*, VarName=COOLING COIL TOTAL HEATING ENERGY, Frequency=
   ************* There are 34 unused schedules in input.
   ************* There are 388 unused week schedules in input.
   ************* There are 396 unused day schedules in input.
   ************* Use Output:Diagnostics,DisplayUnusedSchedules; to see them.
   *************
   ************* ===== Recurring Error Summary =====
   ************* The following recurring error messages occurred.
   *************
   *************  ** Warning ** "TOTAL HOT WATER LOAD" - Target water temperature should be less than or equal to the hot water temperature error continues...
   *************  **   ~~~   **   This error occurred 49719 total times;
   *************  **   ~~~   **   during Warmup 0 times;
   *************  **   ~~~   **   during Sizing 0 times.
   *************  **   ~~~   **   Max=6.130808  Min=5.466449E-004
   *************
   *************
   ************* ===== Final Error Summary =====
   ************* The following error categories occurred.  Consider correcting or noting.
   ************* Nominally Unused Constructions
   ************* ..The nominally unused constructions warning is provided to alert you to potential conditions that can cause
   ************* ..extra time during simulation. Each construction is calculated by the algorithm indicated in the HeatBalanceAlgorithm
   ************* ..object. You may remove the constructions indicated (when you use the DisplayExtraWarnings option).
   *************
   ************* EnergyPlus Warmup Error Summary. During Warmup: 1 Warning; 0 Severe Errors.
   ************* EnergyPlus Sizing Error Summary. During Sizing: 4 Warning; 0 Severe Errors.
   ************* EnergyPlus Completed Successfully-- 49745 Warning; 0 Severe Errors; Elapsed Time=00hr 04min 41.42sec
