Program Version,EnergyPlus, Version 22.2.0-c249759bad, YMD=2023.09.01 19:20,
   ************* Beginning Zone Sizing Calculations
   ** Warning ** ProcessScheduleInput: Schedule:Constant="ALWAYS ON DISCRETE", Schedule Type Limits Name="ONOFF" not found -- will not be validated
   ** Warning ** Foundation:Kiva="KIVA FOUNDATION", no Interior Horizontal Insulation Material Name defined
   **   ~~~   ** Interior Horizontal Insulation Depth will not be used.
   ** Warning ** CheckUsedConstructions: There are 15 nominally unused constructions in input.
   **   ~~~   ** Each Unused construction is shown.
   ************* Construction=INTERIOR FLOOR
   ************* Construction=INTERIOR WINDOW
   ************* Construction=EXTERIOR DOOR
   ************* Construction=INTERIOR DOOR
   ************* Construction=GABLE CONSTRUCTION
   ************* Construction=CRAWL_FLOOR
   ************* Construction=INSULATED PIPE
   ************* Construction=PLAIN PIPE
   ************* Construction=TDD PIPE
   ************* Construction=TDD DOME
   ************* Construction=TDD DIFFUSER
   ************* Construction=CRAWL WALL
   ************* Construction=CEILING-FLOOR-LAYER
   ************* Construction=SLAB CONSTRUCTION W FULL R10 INSULATION
   ************* Construction=SLAB CONSTRUCTION W FULL R5 INSULATION
   ** Warning ** GetDXCoils: Coil:Heating:DX:SingleSpeed="DX_HEATING_COIL" curve values
   **   ~~~   ** ... Defrost Energy Input Ratio Function of Temperature Curve Name = DEFROSTEIR output is not equal to 1.0 (+ or - 10%) at rated conditions.
   **   ~~~   ** ... Curve output at rated conditions = 0.152
   ************* Beginning System Sizing Calculations
   ************* Beginning Plant Sizing Calculations
   ** Warning ** SizeDXCoil Coil:Cooling:DX:SingleSpeed DX_COOLING_COIL
   **   ~~~   ** ...Gross Rated Total Cooling Capacity [W] will be limited by the maximum rated volume flow per rated total capacity ratio.
   **   ~~~   ** ...DX coil volume flow rate ( m3/s ) = 0.481095
   **   ~~~   ** ...Requested capacity ( W ) = 7737.376
   **   ~~~   ** ...Requested flow/capacity ratio ( m3/s/W ) = 6.217E-005
   **   ~~~   ** ...Maximum flow/capacity ratio ( m3/s/W ) = 6.041E-005
   **   ~~~   ** ...Adjusted capacity ( W ) = 7963.841
   ** Warning ** Coil:WaterHeating:AirToWaterHeatPump:Wrapped "HEAT PUMP WATER HEATER EVAPORATOR": Rated air volume flow rate per watt of rated total water heating capacity is out of range
   **   ~~~   ** Min Rated Vol Flow Per Watt=[4.027E-005], Rated Vol Flow Per Watt=[1.510E-004], Max Rated Vol Flow Per Watt=[8.056E-005]. See Input-Output Reference Manual for valid range.
   ************* SizeFan: : Potential issue with equipment sizing for Fan:OnOff HEAT PUMP WATER HEATER FAN
   **   ~~~   ** User-Specified Maximum Flow Rate [m3/s] = 0.22653
   **   ~~~   ** differs from Design Size Maximum Flow Rate [m3/s] = 7.55250E-002
   **   ~~~   ** This may, or may not, indicate mismatched component sizes.
   **   ~~~   ** Verify that the value entered is intended and is consistent with other components.
   ** Warning ** Water heater = WATER HEATER TANK:  Recovery Efficiency and Energy Factor could not be calculated during the test for standard ratings
   **   ~~~   ** Setpoint was never recovered and/or heater never turned on
   ** Warning ** Check input. Pump nominal power or motor efficiency is set to 0, for pump=MAINS PRESSURE
   ** Warning ** Output:Meter: invalid Key Name="ELECTRIC_RANGE:INTERIOREQUIPMENT:ELECTRICITY" - not found.
   ** Warning ** Output:Meter: invalid Key Name="ELECTRIC_DRYER:INTERIOREQUIPMENT:ELECTRICITY" - not found.
   ** Warning ** Output:Meter: invalid Key Name="HEATRECOVERY:ELECTRICITY" - not found.
   ** Warning ** Output:Meter: invalid Key Name="HEATING:NATURALGAS" - not found.
   ** Warning ** Output:Meter: invalid Key Name="WATERSYSTEMS:NATURALGAS" - not found.
   ** Warning ** Output:Meter: invalid Key Name="PROPANE:FACILITY" - not found.
   ** Warning ** Output:Meter: invalid Key Name="HEATING:PROPANE" - not found.
   ************* Testing Individual Branch Integrity
   ************* All Branches passed integrity testing
   ************* Testing Individual Supply Air Path Integrity
   ************* All Supply Air Paths passed integrity testing
   ************* Testing Individual Return Air Path Integrity
   ************* All Return Air Paths passed integrity testing
   ************* No node connection errors were found.
   ************* Beginning Simulation
   ** Warning ** AirflowNetwork::Solver::validate_distribution: Heat pump water heater is simulated along with an AirflowNetwork but is not included in the AirflowNetwork.
   ** Warning ** CalcEquipmentFlowRates: "TOTAL HOT WATER LOAD" - Target water temperature is greater than the hot water temperature by (1.01 C)
   **   ~~~   **  Environment=EXTREME_WINTER, at Simulation time=01/29 06:45 - 07:00
   **   ~~~   ** ...target water temperature     = 53.33 C
   **   ~~~   ** ...hot water temperature        = 52.32 C
   **   ~~~   ** ...Target water temperature should be less than or equal to the hot water temperature. Verify temperature setpoints and schedules.
   ** Warning ** SimHVAC: Maximum iterations (20) exceeded for all HVAC loops, at ANNUAL, 01/06 09:03 - 09:06
   **   ~~~   ** The solution for one or more of the Air Loop HVAC systems did not appear to converge
   **   ~~~   ** Air System Named = CENTRAL SYSTEM did not converge for mass flow rate
   **   ~~~   ** Check values should be zero. Most Recent values listed first.
   **   ~~~   ** Demand-to-Supply interface mass flow rate check value iteration history trace: 6.643858E-002,6.643858E-002,6.643858E-002,6.643858E-002,6.643858E-002,6.643858E-002,6.643858E-002,6.643858E-002,6.643858E-002,6.643858E-002,
   **   ~~~   ** Supply-to-demand interface deck 1 mass flow rate check value iteration history trace: 6.643858E-002,6.643858E-002,6.643858E-002,6.643858E-002,6.643858E-002,6.643858E-002,6.643858E-002,6.643858E-002,6.643858E-002,6.643858E-002,
   **   ~~~   ** Air System Named = CENTRAL SYSTEM did not converge for energy
   **   ~~~   ** Check values should be zero. Most Recent values listed first.
   **   ~~~   ** Demand-to-Supply interface energy check value iteration history trace: 1316.622029,1316.622029,1316.622029,1316.622029,1316.622029,1316.622029,1316.622029,1316.622029,1316.622029,1316.622029,
   **   ~~~   ** Supply-to-demand interface deck 1 energy check value iteration history trace: 2251.409724,2251.409724,2251.409724,2251.409724,2251.409723,2251.409723,2251.409723,2251.409723,2251.409723,2251.409723,
   ** Warning ** SimHVAC: Maximum iterations (20) exceeded for all HVAC loops, at ANNUAL, 01/30 07:45 - 08:00
   **   ~~~   ** The solution for one or more of the Air Loop HVAC systems did not appear to converge
   **   ~~~   ** Air System Named = CENTRAL SYSTEM did not converge for mass flow rate
   **   ~~~   ** Check values should be zero. Most Recent values listed first.
   **   ~~~   ** Demand-to-Supply interface mass flow rate check value iteration history trace: 6.802964E-002,6.802964E-002,6.802964E-002,6.802964E-002,6.802964E-002,6.802964E-002,6.802964E-002,6.802964E-002,6.802964E-002,6.802964E-002,
   **   ~~~   ** Supply-to-demand interface deck 1 mass flow rate check value iteration history trace: 6.802964E-002,6.802964E-002,6.802964E-002,6.802964E-002,6.802964E-002,6.802964E-002,6.802964E-002,6.802964E-002,6.802964E-002,6.802964E-002,
   **   ~~~   ** Air System Named = CENTRAL SYSTEM did not converge for energy
   **   ~~~   ** Check values should be zero. Most Recent values listed first.
   **   ~~~   ** Demand-to-Supply interface energy check value iteration history trace: 1346.670832,1346.670832,1346.670832,1346.670831,1346.670831,1346.670831,1346.670831,1346.670830,1346.670830,1346.670830,
   **   ~~~   ** Supply-to-demand interface deck 1 energy check value iteration history trace: 2369.417694,2369.417693,2369.417693,2369.417692,2369.417692,2369.417692,2369.417691,2369.417691,2369.417690,2369.417690,
   **   ~~~   ** Node named ZONE INLET NODE shows oscillating temperatures across iterations with a repeated value of 34.661304
   **   ~~~   ** Node named ZONE INLET NODE temperature [C] iteration history trace (most recent first): 34.661304,34.661303,34.661303,34.661303,34.661303,34.661303,34.661302,34.661302,34.661302,34.661302,
   ** Warning ** SimHVAC: Maximum iterations (20) exceeded for all HVAC loops, at ANNUAL, 03/01 08:19 - 08:22
   **   ~~~   ** The solution for one or more of the Air Loop HVAC systems did not appear to converge
   **   ~~~   ** Air System Named = CENTRAL SYSTEM did not converge for mass flow rate
   **   ~~~   ** Check values should be zero. Most Recent values listed first.
   **   ~~~   ** Demand-to-Supply interface mass flow rate check value iteration history trace: 6.427003E-002,6.427003E-002,6.427003E-002,6.427003E-002,6.427003E-002,6.427003E-002,6.427003E-002,6.427003E-002,6.427003E-002,6.427003E-002,
   **   ~~~   ** Supply-to-demand interface deck 1 mass flow rate check value iteration history trace: 6.427003E-002,6.427003E-002,6.427003E-002,6.427003E-002,6.427003E-002,6.427003E-002,6.427003E-002,6.427003E-002,6.427003E-002,6.427003E-002,
   **   ~~~   ** Air System Named = CENTRAL SYSTEM did not converge for energy
   **   ~~~   ** Check values should be zero. Most Recent values listed first.
   **   ~~~   ** Demand-to-Supply interface energy check value iteration history trace: 1273.683043,1273.683043,1273.683043,1273.683043,1273.683043,1273.683043,1273.683043,1273.683043,1273.683043,1273.683043,
   **   ~~~   ** Supply-to-demand interface deck 1 energy check value iteration history trace: 2190.112432,2190.112432,2190.112432,2190.112432,2190.112432,2190.112432,2190.112432,2190.112431,2190.112431,2190.112431,
   ** Warning ** SimHVAC: Maximum iterations (20) exceeded for all HVAC loops, at ANNUAL, 03/05 07:55 - 08:00
   **   ~~~   ** The solution for one or more of the Air Loop HVAC systems did not appear to converge
   **   ~~~   ** Air System Named = CENTRAL SYSTEM did not converge for mass flow rate
   **   ~~~   ** Check values should be zero. Most Recent values listed first.
   **   ~~~   ** Demand-to-Supply interface mass flow rate check value iteration history trace: 4.644557E-002,4.644557E-002,4.644557E-002,4.644557E-002,4.644557E-002,4.644557E-002,4.644557E-002,4.644557E-002,4.644557E-002,4.644557E-002,
   **   ~~~   ** Supply-to-demand interface deck 1 mass flow rate check value iteration history trace: 4.644557E-002,4.644557E-002,4.644557E-002,4.644557E-002,4.644557E-002,4.644557E-002,4.644557E-002,4.644557E-002,4.644557E-002,4.644557E-002,
   **   ~~~   ** Air System Named = CENTRAL SYSTEM did not converge for energy
   **   ~~~   ** Check values should be zero. Most Recent values listed first.
   **   ~~~   ** Demand-to-Supply interface energy check value iteration history trace: 1098.293448,1098.293448,1098.293448,1098.293448,1098.293448,1098.293448,1098.293448,1098.293448,1098.293448,1098.293448,
   **   ~~~   ** Supply-to-demand interface deck 1 energy check value iteration history trace: 615.453531,615.453531,615.453531,615.453531,615.453531,615.453531,615.453531,615.453531,615.453531,615.453531,
   ** Warning ** SimHVAC: Maximum iterations (20) exceeded for all HVAC loops, at ANNUAL, 03/05 09:00 - 09:15
   **   ~~~   ** The solution for one or more of the Air Loop HVAC systems did not appear to converge
   **   ~~~   ** Air System Named = CENTRAL SYSTEM did not converge for mass flow rate
   **   ~~~   ** Check values should be zero. Most Recent values listed first.
   **   ~~~   ** Demand-to-Supply interface mass flow rate check value iteration history trace: 4.349586E-002,4.349586E-002,4.349586E-002,4.349586E-002,4.349586E-002,4.349586E-002,4.349586E-002,4.349586E-002,4.349586E-002,4.349586E-002,
   **   ~~~   ** Supply-to-demand interface deck 1 mass flow rate check value iteration history trace: 4.349586E-002,4.349586E-002,4.349586E-002,4.349586E-002,4.349586E-002,4.349586E-002,4.349586E-002,4.349586E-002,4.349586E-002,4.349586E-002,
   **   ~~~   ** Air System Named = CENTRAL SYSTEM did not converge for energy
   **   ~~~   ** Check values should be zero. Most Recent values listed first.
   **   ~~~   ** Demand-to-Supply interface energy check value iteration history trace: 1025.932201,1025.932201,1025.932201,1025.932201,1025.932201,1025.932201,1025.932201,1025.932202,1025.932202,1025.932202,
   **   ~~~   ** Supply-to-demand interface deck 1 energy check value iteration history trace: 564.969906,564.969906,564.969906,564.969907,564.969907,564.969907,564.969907,564.969907,564.969907,564.969907,
   ** Warning ** SimHVAC: Maximum iterations (20) exceeded for all HVAC loops, at ANNUAL, 12/15 13:15 - 13:30
   **   ~~~   ** The solution for one or more of the Air Loop HVAC systems did not appear to converge
   **   ~~~   ** Air System Named = CENTRAL SYSTEM did not converge for mass flow rate
   **   ~~~   ** Check values should be zero. Most Recent values listed first.
   **   ~~~   ** Demand-to-Supply interface mass flow rate check value iteration history trace: 0.135153,0.135153,0.135153,0.135153,0.135153,0.135153,0.135153,0.135153,0.135153,0.135153,
   **   ~~~   ** Supply-to-demand interface deck 1 mass flow rate check value iteration history trace: 0.135153,0.135153,0.135153,0.135153,0.135153,0.135153,0.135153,0.135153,0.135153,0.135153,
   **   ~~~   ** Air System Named = CENTRAL SYSTEM did not converge for energy
   **   ~~~   ** Check values should be zero. Most Recent values listed first.
   **   ~~~   ** Demand-to-Supply interface energy check value iteration history trace: 3248.113423,3248.113424,3248.113425,3248.113426,3248.113427,3248.113428,3248.113429,3248.113430,3248.113431,3248.113432,
   **   ~~~   ** Supply-to-demand interface deck 1 energy check value iteration history trace: 1291.195965,1291.195965,1291.195965,1291.195966,1291.195966,1291.195967,1291.195967,1291.195967,1291.195968,1291.195968,
   ** Warning ** SimHVAC: Maximum iterations (20) exceeded for all HVAC loops, at ANNUAL, 12/17 20:53 - 21:00
   **   ~~~   ** The solution for one or more of the Air Loop HVAC systems did not appear to converge
   **   ~~~   ** Air System Named = CENTRAL SYSTEM did not converge for mass flow rate
   **   ~~~   ** Check values should be zero. Most Recent values listed first.
   **   ~~~   ** Demand-to-Supply interface mass flow rate check value iteration history trace: 7.901318E-002,7.901318E-002,7.901318E-002,7.901318E-002,7.901318E-002,7.901318E-002,7.901318E-002,7.901318E-002,7.901318E-002,7.901318E-002,
   **   ~~~   ** Supply-to-demand interface deck 1 mass flow rate check value iteration history trace: 7.901318E-002,7.901318E-002,7.901318E-002,7.901318E-002,7.901318E-002,7.901318E-002,7.901318E-002,7.901318E-002,7.901318E-002,7.901318E-002,
   **   ~~~   ** Air System Named = CENTRAL SYSTEM did not converge for energy
   **   ~~~   ** Check values should be zero. Most Recent values listed first.
   **   ~~~   ** Demand-to-Supply interface energy check value iteration history trace: 1853.124995,1853.124995,1853.124995,1853.124995,1853.124995,1853.124995,1853.124995,1853.124995,1853.124996,1853.124996,
   **   ~~~   ** Supply-to-demand interface deck 1 energy check value iteration history trace: 712.381510,712.381510,712.381510,712.381510,712.381510,712.381510,712.381510,712.381510,712.381510,712.381510,
   ** Warning ** SimHVAC: Maximum iterations (20) exceeded for all HVAC loops, at ANNUAL, 12/19 18:40 - 18:45
   **   ~~~   ** The solution for one or more of the Air Loop HVAC systems did not appear to converge
   **   ~~~   ** Air System Named = CENTRAL SYSTEM did not converge for mass flow rate
   **   ~~~   ** Check values should be zero. Most Recent values listed first.
   **   ~~~   ** Demand-to-Supply interface mass flow rate check value iteration history trace: 0.256559,0.256559,0.256559,0.256559,0.256559,0.256559,0.256559,0.256559,0.256559,0.256559,
   **   ~~~   ** Supply-to-demand interface deck 1 mass flow rate check value iteration history trace: 0.256559,0.256559,0.256559,0.256559,0.256559,0.256559,0.256559,0.256559,0.256559,0.256559,
   **   ~~~   ** Air System Named = CENTRAL SYSTEM did not converge for energy
   **   ~~~   ** Check values should be zero. Most Recent values listed first.
   **   ~~~   ** Demand-to-Supply interface energy check value iteration history trace: 6113.108637,6113.108639,6113.108641,6113.108642,6113.108644,6113.108646,6113.108648,6113.108650,6113.108651,6113.108653,
   **   ~~~   ** Supply-to-demand interface deck 1 energy check value iteration history trace: 3375.195840,3375.195841,3375.195842,3375.195843,3375.195844,3375.195845,3375.195845,3375.195846,3375.195847,3375.195848,
   ** Warning ** SimHVAC: Maximum iterations (20) exceeded for all HVAC loops, at ANNUAL, 12/24 21:08 - 21:15
   **   ~~~   ** The solution for one or more of the Air Loop HVAC systems did not appear to converge
   **   ~~~   ** Air System Named = CENTRAL SYSTEM did not converge for mass flow rate
   **   ~~~   ** Check values should be zero. Most Recent values listed first.
   **   ~~~   ** Demand-to-Supply interface mass flow rate check value iteration history trace: 5.950630E-002,5.950630E-002,5.950630E-002,5.950630E-002,5.950630E-002,5.950630E-002,5.950630E-002,5.950630E-002,5.950630E-002,5.950630E-002,
   **   ~~~   ** Supply-to-demand interface deck 1 mass flow rate check value iteration history trace: 5.950630E-002,5.950630E-002,5.950630E-002,5.950630E-002,5.950630E-002,5.950630E-002,5.950630E-002,5.950630E-002,5.950630E-002,5.950630E-002,
   **   ~~~   ** Air System Named = CENTRAL SYSTEM did not converge for energy
   **   ~~~   ** Check values should be zero. Most Recent values listed first.
   **   ~~~   ** Demand-to-Supply interface energy check value iteration history trace: 1398.995973,1398.995973,1398.995973,1398.995973,1398.995973,1398.995973,1398.995973,1398.995973,1398.995974,1398.995974,
   **   ~~~   ** Supply-to-demand interface deck 1 energy check value iteration history trace: 508.701339,508.701339,508.701339,508.701339,508.701339,508.701339,508.701339,508.701339,508.701339,508.701339,
   ************* Simulation Error Summary *************
   ** Warning ** The following Report Variables were requested but not generated -- check.rdd file
   **   ~~~   ** Either the IDF did not contain these elements, the variable name is misspelled,
   **   ~~~   ** or the requested variable is an advanced output which requires Output : Diagnostics, DisplayAdvancedReportVariables;
   ************* Key=*, VarName=BASEBOARD TOTAL HEATING ENERGY, Frequency=
   ************* Key=*, VarName=WATER HEATER NATURALGAS ENERGY, Frequency=
   ************* Key=*, VarName=COOLING COIL TOTAL HEATING ENERGY, Frequency=
   ************* There are 34 unused schedules in input.
   ************* There are 388 unused week schedules in input.
   ************* There are 397 unused day schedules in input.
   ************* Use Output:Diagnostics,DisplayUnusedSchedules; to see them.
   *************
   ************* ===== Recurring Error Summary =====
   ************* The following recurring error messages occurred.
   *************
   *************  ** Warning ** "TOTAL HOT WATER LOAD" - Target water temperature should be less than or equal to the hot water temperature error continues...
   *************  **   ~~~   **   This error occurred 112159 total times;
   *************  **   ~~~   **   during Warmup 0 times;
   *************  **   ~~~   **   during Sizing 0 times.
   *************  **   ~~~   **   Max=9.281806  Min=3.426918E-003
   *************
   *************
   ************* ===== Final Error Summary =====
   ************* The following error categories occurred.  Consider correcting or noting.
   ************* Nominally Unused Constructions
   ************* ..The nominally unused constructions warning is provided to alert you to potential conditions that can cause
   ************* ..extra time during simulation. Each construction is calculated by the algorithm indicated in the HeatBalanceAlgorithm
   ************* ..object. You may remove the constructions indicated (when you use the DisplayExtraWarnings option).
   *************
   ************* EnergyPlus Warmup Error Summary. During Warmup: 1 Warning; 0 Severe Errors.
   ************* EnergyPlus Sizing Error Summary. During Sizing: 4 Warning; 0 Severe Errors.
   ************* EnergyPlus Completed Successfully-- 112186 Warning; 0 Severe Errors; Elapsed Time=00hr 01min 45.11sec
