Program Version,EnergyPlus, Version 22.2.0-c249759bad, YMD=2023.09.01 19:45,
   ************* Beginning Zone Sizing Calculations
   ** Warning ** ProcessScheduleInput: Schedule:Constant="ALWAYS ON DISCRETE", Schedule Type Limits Name="ONOFF" not found -- will not be validated
   ** Warning ** Foundation:Kiva="KIVA FOUNDATION", no Interior Horizontal Insulation Material Name defined
   **   ~~~   ** Interior Horizontal Insulation Depth will not be used.
   ** Warning ** CheckUsedConstructions: There are 15 nominally unused constructions in input.
   **   ~~~   ** Each Unused construction is shown.
   ************* Construction=INTERIOR FLOOR
   ************* Construction=INTERIOR WINDOW
   ************* Construction=EXTERIOR DOOR
   ************* Construction=INTERIOR DOOR
   ************* Construction=GABLE CONSTRUCTION
   ************* Construction=CRAWL_FLOOR
   ************* Construction=INSULATED PIPE
   ************* Construction=PLAIN PIPE
   ************* Construction=TDD PIPE
   ************* Construction=TDD DOME
   ************* Construction=TDD DIFFUSER
   ************* Construction=CRAWL WALL
   ************* Construction=CEILING-FLOOR-LAYER
   ************* Construction=SLAB CONSTRUCTION W FULL R10 INSULATION
   ************* Construction=SLAB CONSTRUCTION W FULL R5 INSULATION
   ** Warning ** GetDXCoils: Coil:Heating:DX:SingleSpeed="DX_HEATING_COIL" curve values
   **   ~~~   ** ... Defrost Energy Input Ratio Function of Temperature Curve Name = DEFROSTEIR output is not equal to 1.0 (+ or - 10%) at rated conditions.
   **   ~~~   ** ... Curve output at rated conditions = 0.152
   ************* Beginning System Sizing Calculations
   ************* Beginning Plant Sizing Calculations
   ** Warning ** SizeDXCoil Coil:Cooling:DX:SingleSpeed DX_COOLING_COIL
   **   ~~~   ** ...Gross Rated Total Cooling Capacity [W] will be limited by the maximum rated volume flow per rated total capacity ratio.
   **   ~~~   ** ...DX coil volume flow rate ( m3/s ) = 0.509401
   **   ~~~   ** ...Requested capacity ( W ) = 6639.071
   **   ~~~   ** ...Requested flow/capacity ratio ( m3/s/W ) = 7.672E-005
   **   ~~~   ** ...Maximum flow/capacity ratio ( m3/s/W ) = 6.041E-005
   **   ~~~   ** ...Adjusted capacity ( W ) = 8432.396
   ** Warning ** SizeDXCoil Coil:Heating:DX:SingleSpeed DX_HEATING_COIL
   **   ~~~   ** ...Gross Rated Heating Capacity [W] will be limited by the maximum rated volume flow per rated total capacity ratio.
   **   ~~~   ** ...DX coil volume flow rate ( m3/s ) = 0.509401
   **   ~~~   ** ...Requested capacity ( W ) = 8432.396
   **   ~~~   ** ...Requested flow/capacity ratio ( m3/s/W ) = 6.041E-005
   **   ~~~   ** ...Maximum flow/capacity ratio ( m3/s/W ) = 6.041E-005
   **   ~~~   ** ...Adjusted capacity ( W ) = 8432.396
   ** Warning ** Coil:WaterHeating:AirToWaterHeatPump:Wrapped "HEAT PUMP WATER HEATER EVAPORATOR": Rated air volume flow rate per watt of rated total water heating capacity is out of range
   **   ~~~   ** Min Rated Vol Flow Per Watt=[4.027E-005], Rated Vol Flow Per Watt=[1.510E-004], Max Rated Vol Flow Per Watt=[8.056E-005]. See Input-Output Reference Manual for valid range.
   ************* SizeFan: : Potential issue with equipment sizing for Fan:OnOff HEAT PUMP WATER HEATER FAN
   **   ~~~   ** User-Specified Maximum Flow Rate [m3/s] = 0.22653
   **   ~~~   ** differs from Design Size Maximum Flow Rate [m3/s] = 7.55250E-002
   **   ~~~   ** This may, or may not, indicate mismatched component sizes.
   **   ~~~   ** Verify that the value entered is intended and is consistent with other components.
   ** Warning ** Water heater = WATER HEATER TANK:  Recovery Efficiency and Energy Factor could not be calculated during the test for standard ratings
   **   ~~~   ** Setpoint was never recovered and/or heater never turned on
   ** Warning ** Check input. Pump nominal power or motor efficiency is set to 0, for pump=MAINS PRESSURE
   ** Warning ** Output:Meter: invalid Key Name="ELECTRIC_RANGE:INTERIOREQUIPMENT:ELECTRICITY" - not found.
   ** Warning ** Output:Meter: invalid Key Name="ELECTRIC_DRYER:INTERIOREQUIPMENT:ELECTRICITY" - not found.
   ** Warning ** Output:Meter: invalid Key Name="HEATRECOVERY:ELECTRICITY" - not found.
   ** Warning ** Output:Meter: invalid Key Name="HEATING:NATURALGAS" - not found.
   ** Warning ** Output:Meter: invalid Key Name="WATERSYSTEMS:NATURALGAS" - not found.
   ** Warning ** Output:Meter: invalid Key Name="PROPANE:FACILITY" - not found.
   ** Warning ** Output:Meter: invalid Key Name="HEATING:PROPANE" - not found.
   ************* Testing Individual Branch Integrity
   ************* All Branches passed integrity testing
   ************* Testing Individual Supply Air Path Integrity
   ************* All Supply Air Paths passed integrity testing
   ************* Testing Individual Return Air Path Integrity
   ************* All Return Air Paths passed integrity testing
   ************* No node connection errors were found.
   ************* Beginning Simulation
   ** Warning ** AirflowNetwork::Solver::validate_distribution: Heat pump water heater is simulated along with an AirflowNetwork but is not included in the AirflowNetwork.
   ** Warning ** CalcEquipmentFlowRates: "TOTAL HOT WATER LOAD" - Target water temperature is greater than the hot water temperature by (6.11 C)
   **   ~~~   **  Environment=EXTREME_WINTER, at Simulation time=12/15 06:00 - 06:15
   **   ~~~   ** ...target water temperature     = 53.33 C
   **   ~~~   ** ...hot water temperature        = 47.23 C
   **   ~~~   ** ...Target water temperature should be less than or equal to the hot water temperature. Verify temperature setpoints and schedules.
   ** Warning ** SimHVAC: Maximum iterations (20) exceeded for all HVAC loops, at ANNUAL, 02/18 11:45 - 12:00
   **   ~~~   ** The solution for one or more of the Air Loop HVAC systems did not appear to converge
   **   ~~~   ** Air System Named = CENTRAL SYSTEM did not converge for mass flow rate
   **   ~~~   ** Check values should be zero. Most Recent values listed first.
   **   ~~~   ** Demand-to-Supply interface mass flow rate check value iteration history trace: 7.005779E-002,7.005779E-002,7.005779E-002,7.005779E-002,7.005779E-002,7.005779E-002,7.005779E-002,7.005779E-002,7.005779E-002,7.005779E-002,
   **   ~~~   ** Supply-to-demand interface deck 1 mass flow rate check value iteration history trace: 7.005779E-002,7.005779E-002,7.005779E-002,7.005779E-002,7.005779E-002,7.005779E-002,7.005779E-002,7.005779E-002,7.005779E-002,7.005779E-002,
   **   ~~~   ** Air System Named = CENTRAL SYSTEM did not converge for energy
   **   ~~~   ** Check values should be zero. Most Recent values listed first.
   **   ~~~   ** Demand-to-Supply interface energy check value iteration history trace: 1388.240549,1388.240549,1388.240549,1388.240549,1388.240549,1388.240549,1388.240548,1388.240548,1388.240548,1388.240548,
   **   ~~~   ** Supply-to-demand interface deck 1 energy check value iteration history trace: 2168.287784,2168.287784,2168.287784,2168.287784,2168.287784,2168.287784,2168.287783,2168.287783,2168.287783,2168.287783,
   ** Warning ** SimHVAC: Maximum iterations (20) exceeded for all HVAC loops, at ANNUAL, 03/09 20:15 - 20:30
   **   ~~~   ** The solution for one or more of the Air Loop HVAC systems did not appear to converge
   **   ~~~   ** Air System Named = CENTRAL SYSTEM did not converge for mass flow rate
   **   ~~~   ** Check values should be zero. Most Recent values listed first.
   **   ~~~   ** Demand-to-Supply interface mass flow rate check value iteration history trace: 5.207104E-002,5.207104E-002,5.207104E-002,5.207104E-002,5.207104E-002,5.207104E-002,5.207104E-002,5.207104E-002,5.207104E-002,5.207104E-002,
   **   ~~~   ** Supply-to-demand interface deck 1 mass flow rate check value iteration history trace: 5.207104E-002,5.207104E-002,5.207104E-002,5.207104E-002,5.207104E-002,5.207104E-002,5.207104E-002,5.207104E-002,5.207104E-002,5.207104E-002,
   **   ~~~   ** Air System Named = CENTRAL SYSTEM did not converge for energy
   **   ~~~   ** Check values should be zero. Most Recent values listed first.
   **   ~~~   ** Demand-to-Supply interface energy check value iteration history trace: 1030.155581,1030.155581,1030.155581,1030.155581,1030.155581,1030.155581,1030.155581,1030.155581,1030.155581,1030.155581,
   **   ~~~   ** Supply-to-demand interface deck 1 energy check value iteration history trace: 1917.316023,1917.316023,1917.316023,1917.316022,1917.316022,1917.316022,1917.316022,1917.316022,1917.316022,1917.316022,
   ** Warning ** SimHVAC: Maximum iterations (20) exceeded for all HVAC loops, at ANNUAL, 03/14 20:15 - 20:22
   **   ~~~   ** The solution for one or more of the Air Loop HVAC systems did not appear to converge
   **   ~~~   ** Air System Named = CENTRAL SYSTEM did not converge for mass flow rate
   **   ~~~   ** Check values should be zero. Most Recent values listed first.
   **   ~~~   ** Demand-to-Supply interface mass flow rate check value iteration history trace: 5.461709E-002,5.461709E-002,5.461709E-002,5.461709E-002,5.461709E-002,5.461709E-002,5.461709E-002,5.461709E-002,5.461709E-002,5.461709E-002,
   **   ~~~   ** Supply-to-demand interface deck 1 mass flow rate check value iteration history trace: 5.461709E-002,5.461709E-002,5.461709E-002,5.461709E-002,5.461709E-002,5.461709E-002,5.461709E-002,5.461709E-002,5.461709E-002,5.461709E-002,
   **   ~~~   ** Air System Named = CENTRAL SYSTEM did not converge for energy
   **   ~~~   ** Check values should be zero. Most Recent values listed first.
   **   ~~~   ** Demand-to-Supply interface energy check value iteration history trace: 1080.202106,1080.202106,1080.202106,1080.202106,1080.202106,1080.202106,1080.202106,1080.202106,1080.202106,1080.202106,
   **   ~~~   ** Supply-to-demand interface deck 1 energy check value iteration history trace: 1947.542510,1947.542510,1947.542510,1947.542510,1947.542510,1947.542510,1947.542510,1947.542510,1947.542510,1947.542510,
   ** Warning ** SimHVAC: Maximum iterations (20) exceeded for all HVAC loops, at ANNUAL, 03/23 10:45 - 11:00
   **   ~~~   ** The solution for one or more of the Air Loop HVAC systems did not appear to converge
   **   ~~~   ** Air System Named = CENTRAL SYSTEM did not converge for mass flow rate
   **   ~~~   ** Check values should be zero. Most Recent values listed first.
   **   ~~~   ** Demand-to-Supply interface mass flow rate check value iteration history trace: 4.327809E-002,4.327809E-002,4.327809E-002,4.327809E-002,4.327809E-002,4.327809E-002,4.327809E-002,4.327809E-002,4.327809E-002,4.327809E-002,
   **   ~~~   ** Supply-to-demand interface deck 1 mass flow rate check value iteration history trace: 4.327809E-002,4.327809E-002,4.327809E-002,4.327809E-002,4.327809E-002,4.327809E-002,4.327809E-002,4.327809E-002,4.327809E-002,4.327809E-002,
   **   ~~~   ** Air System Named = CENTRAL SYSTEM did not converge for energy
   **   ~~~   ** Check values should be zero. Most Recent values listed first.
   **   ~~~   ** Demand-to-Supply interface energy check value iteration history trace: 856.559341,856.559340,856.559340,856.559340,856.559340,856.559340,856.559340,856.559340,856.559340,856.559340,
   **   ~~~   ** Supply-to-demand interface deck 1 energy check value iteration history trace: 1559.753989,1559.753989,1559.753989,1559.753989,1559.753989,1559.753989,1559.753989,1559.753989,1559.753988,1559.753988,
   ** Warning ** SimHVAC: Maximum iterations (20) exceeded for all HVAC loops, at ANNUAL, 03/26 20:15 - 20:30
   **   ~~~   ** The solution for one or more of the Air Loop HVAC systems did not appear to converge
   **   ~~~   ** Air System Named = CENTRAL SYSTEM did not converge for mass flow rate
   **   ~~~   ** Check values should be zero. Most Recent values listed first.
   **   ~~~   ** Demand-to-Supply interface mass flow rate check value iteration history trace: 6.800628E-002,6.800628E-002,6.800628E-002,6.800628E-002,6.800628E-002,6.800628E-002,6.800628E-002,6.800628E-002,6.800628E-002,6.800628E-002,
   **   ~~~   ** Supply-to-demand interface deck 1 mass flow rate check value iteration history trace: 6.800628E-002,6.800628E-002,6.800628E-002,6.800628E-002,6.800628E-002,6.800628E-002,6.800628E-002,6.800628E-002,6.800628E-002,6.800628E-002,
   **   ~~~   ** Air System Named = CENTRAL SYSTEM did not converge for energy
   **   ~~~   ** Check values should be zero. Most Recent values listed first.
   **   ~~~   ** Demand-to-Supply interface energy check value iteration history trace: 1327.122774,1327.122774,1327.122774,1327.122774,1327.122774,1327.122774,1327.122774,1327.122774,1327.122774,1327.122774,
   **   ~~~   ** Supply-to-demand interface deck 1 energy check value iteration history trace: 2188.871456,2188.871456,2188.871456,2188.871456,2188.871456,2188.871455,2188.871455,2188.871455,2188.871455,2188.871455,
   ** Warning ** SimHVAC: Maximum iterations (20) exceeded for all HVAC loops, at ANNUAL, 03/29 00:00 - 00:08
   **   ~~~   ** The solution for one or more of the Air Loop HVAC systems did not appear to converge
   **   ~~~   ** Air System Named = CENTRAL SYSTEM did not converge for mass flow rate
   **   ~~~   ** Check values should be zero. Most Recent values listed first.
   **   ~~~   ** Demand-to-Supply interface mass flow rate check value iteration history trace: 4.868866E-002,4.868866E-002,4.868866E-002,4.868866E-002,4.868866E-002,4.868866E-002,4.868866E-002,4.868866E-002,4.868866E-002,4.868866E-002,
   **   ~~~   ** Supply-to-demand interface deck 1 mass flow rate check value iteration history trace: 4.868866E-002,4.868866E-002,4.868866E-002,4.868866E-002,4.868866E-002,4.868866E-002,4.868866E-002,4.868866E-002,4.868866E-002,4.868866E-002,
   **   ~~~   ** Air System Named = CENTRAL SYSTEM did not converge for energy
   **   ~~~   ** Check values should be zero. Most Recent values listed first.
   **   ~~~   ** Demand-to-Supply interface energy check value iteration history trace: 911.482491,911.482491,911.482491,911.482491,911.482491,911.482491,911.482491,911.482491,911.482491,911.482491,
   **   ~~~   ** Supply-to-demand interface deck 1 energy check value iteration history trace: 1706.938407,1706.938407,1706.938407,1706.938407,1706.938407,1706.938407,1706.938407,1706.938407,1706.938407,1706.938407,
   ** Warning ** SimHVAC: Maximum iterations (20) exceeded for all HVAC loops, at ANNUAL, 04/04 09:34 - 09:36
   **   ~~~   ** The solution for one or more of the Air Loop HVAC systems did not appear to converge
   **   ~~~   ** Air System Named = CENTRAL SYSTEM did not converge for mass flow rate
   **   ~~~   ** Check values should be zero. Most Recent values listed first.
   **   ~~~   ** Demand-to-Supply interface mass flow rate check value iteration history trace: 5.421425E-002,5.421425E-002,5.421425E-002,5.421425E-002,5.421425E-002,5.421425E-002,5.421425E-002,5.421425E-002,5.421425E-002,5.421425E-002,
   **   ~~~   ** Supply-to-demand interface deck 1 mass flow rate check value iteration history trace: 5.421425E-002,5.421425E-002,5.421425E-002,5.421425E-002,5.421425E-002,5.421425E-002,5.421425E-002,5.421425E-002,5.421425E-002,5.421425E-002,
   **   ~~~   ** Air System Named = CENTRAL SYSTEM did not converge for energy
   **   ~~~   ** Check values should be zero. Most Recent values listed first.
   **   ~~~   ** Demand-to-Supply interface energy check value iteration history trace: 1074.400683,1074.400683,1074.400683,1074.400683,1074.400683,1074.400683,1074.400683,1074.400683,1074.400683,1074.400683,
   **   ~~~   ** Supply-to-demand interface deck 1 energy check value iteration history trace: 1914.101818,1914.101818,1914.101818,1914.101818,1914.101818,1914.101818,1914.101817,1914.101817,1914.101817,1914.101817,
   ** Warning ** SimHVAC: Maximum iterations (20) exceeded for all HVAC loops, at ANNUAL, 04/14 09:30 - 09:31
   **   ~~~   ** The solution for one or more of the Air Loop HVAC systems did not appear to converge
   **   ~~~   ** Air System Named = CENTRAL SYSTEM did not converge for mass flow rate
   **   ~~~   ** Check values should be zero. Most Recent values listed first.
   **   ~~~   ** Demand-to-Supply interface mass flow rate check value iteration history trace: 7.423640E-002,7.423640E-002,7.423640E-002,7.423640E-002,7.423640E-002,7.423640E-002,7.423640E-002,7.423640E-002,7.423640E-002,7.423640E-002,
   **   ~~~   ** Supply-to-demand interface deck 1 mass flow rate check value iteration history trace: 7.423640E-002,7.423640E-002,7.423640E-002,7.423640E-002,7.423640E-002,7.423640E-002,7.423640E-002,7.423640E-002,7.423640E-002,7.423640E-002,
   **   ~~~   ** Air System Named = CENTRAL SYSTEM did not converge for energy
   **   ~~~   ** Check values should be zero. Most Recent values listed first.
   **   ~~~   ** Demand-to-Supply interface energy check value iteration history trace: 1471.177112,1471.177112,1471.177112,1471.177112,1471.177112,1471.177112,1471.177112,1471.177112,1471.177112,1471.177112,
   **   ~~~   ** Supply-to-demand interface deck 1 energy check value iteration history trace: 2419.329835,2419.329835,2419.329835,2419.329835,2419.329834,2419.329834,2419.329834,2419.329834,2419.329834,2419.329834,
   ** Warning ** SimHVAC: Maximum iterations (20) exceeded for all HVAC loops, at ANNUAL, 04/17 08:15 - 08:30
   **   ~~~   ** The solution for one or more of the Air Loop HVAC systems did not appear to converge
   **   ~~~   ** Air System Named = CENTRAL SYSTEM did not converge for mass flow rate
   **   ~~~   ** Check values should be zero. Most Recent values listed first.
   **   ~~~   ** Demand-to-Supply interface mass flow rate check value iteration history trace: 6.682766E-002,6.682766E-002,6.682766E-002,6.682766E-002,6.682766E-002,6.682766E-002,6.682766E-002,6.682766E-002,6.682766E-002,6.682766E-002,
   **   ~~~   ** Supply-to-demand interface deck 1 mass flow rate check value iteration history trace: 6.682766E-002,6.682766E-002,6.682766E-002,6.682766E-002,6.682766E-002,6.682766E-002,6.682766E-002,6.682766E-002,6.682766E-002,6.682766E-002,
   **   ~~~   ** Air System Named = CENTRAL SYSTEM did not converge for energy
   **   ~~~   ** Check values should be zero. Most Recent values listed first.
   **   ~~~   ** Demand-to-Supply interface energy check value iteration history trace: 1324.282258,1324.282258,1324.282258,1324.282258,1324.282258,1324.282258,1324.282258,1324.282258,1324.282258,1324.282258,
   **   ~~~   ** Supply-to-demand interface deck 1 energy check value iteration history trace: 2423.063621,2423.063621,2423.063621,2423.063621,2423.063621,2423.063621,2423.063621,2423.063621,2423.063621,2423.063620,
   ** Warning ** SimHVAC: Maximum iterations (20) exceeded for all HVAC loops, at ANNUAL, 04/21 09:06 - 09:08
   **   ~~~   ** The solution for one or more of the Air Loop HVAC systems did not appear to converge
   **   ~~~   ** Air System Named = CENTRAL SYSTEM did not converge for mass flow rate
   **   ~~~   ** Check values should be zero. Most Recent values listed first.
   **   ~~~   ** Demand-to-Supply interface mass flow rate check value iteration history trace: 5.738423E-002,5.738423E-002,5.738423E-002,5.738423E-002,5.738423E-002,5.738423E-002,5.738423E-002,5.738423E-002,5.738423E-002,5.738423E-002,
   **   ~~~   ** Supply-to-demand interface deck 1 mass flow rate check value iteration history trace: 5.738423E-002,5.738423E-002,5.738423E-002,5.738423E-002,5.738423E-002,5.738423E-002,5.738423E-002,5.738423E-002,5.738423E-002,5.738423E-002,
   **   ~~~   ** Air System Named = CENTRAL SYSTEM did not converge for energy
   **   ~~~   ** Check values should be zero. Most Recent values listed first.
   **   ~~~   ** Demand-to-Supply interface energy check value iteration history trace: 1131.645969,1131.645969,1131.645969,1131.645969,1131.645969,1131.645969,1131.645969,1131.645969,1131.645969,1131.645969,
   **   ~~~   ** Supply-to-demand interface deck 1 energy check value iteration history trace: 2166.289065,2166.289065,2166.289065,2166.289065,2166.289065,2166.289065,2166.289065,2166.289065,2166.289065,2166.289065,
   ** Warning ** SimHVAC: Maximum iterations (20) exceeded for all HVAC loops, at ANNUAL, 04/30 08:30 - 08:32
   **   ~~~   ** The solution for one or more of the Air Loop HVAC systems did not appear to converge
   **   ~~~   ** Air System Named = CENTRAL SYSTEM did not converge for mass flow rate
   **   ~~~   ** Check values should be zero. Most Recent values listed first.
   **   ~~~   ** Demand-to-Supply interface mass flow rate check value iteration history trace: 6.323828E-002,6.323828E-002,6.323828E-002,6.323828E-002,6.323828E-002,6.323828E-002,6.323828E-002,6.323828E-002,6.323828E-002,6.323828E-002,
   **   ~~~   ** Supply-to-demand interface deck 1 mass flow rate check value iteration history trace: 6.323828E-002,6.323828E-002,6.323828E-002,6.323828E-002,6.323828E-002,6.323828E-002,6.323828E-002,6.323828E-002,6.323828E-002,6.323828E-002,
   **   ~~~   ** Air System Named = CENTRAL SYSTEM did not converge for energy
   **   ~~~   ** Check values should be zero. Most Recent values listed first.
   **   ~~~   ** Demand-to-Supply interface energy check value iteration history trace: 1250.467642,1250.467641,1250.467641,1250.467641,1250.467641,1250.467641,1250.467641,1250.467641,1250.467641,1250.467641,
   **   ~~~   ** Supply-to-demand interface deck 1 energy check value iteration history trace: 2250.957837,2250.957837,2250.957837,2250.957837,2250.957837,2250.957837,2250.957837,2250.957837,2250.957836,2250.957836,
   ** Warning ** SimHVAC: Maximum iterations (20) exceeded for all HVAC loops, at ANNUAL, 05/08 08:00 - 08:15
   **   ~~~   ** The solution for one or more of the Air Loop HVAC systems did not appear to converge
   **   ~~~   ** Air System Named = CENTRAL SYSTEM did not converge for mass flow rate
   **   ~~~   ** Check values should be zero. Most Recent values listed first.
   **   ~~~   ** Demand-to-Supply interface mass flow rate check value iteration history trace: 6.687363E-002,6.687363E-002,6.687363E-002,6.687363E-002,6.687363E-002,6.687363E-002,6.687363E-002,6.687363E-002,6.687363E-002,6.687363E-002,
   **   ~~~   ** Supply-to-demand interface deck 1 mass flow rate check value iteration history trace: 6.687363E-002,6.687363E-002,6.687363E-002,6.687363E-002,6.687363E-002,6.687363E-002,6.687363E-002,6.687363E-002,6.687363E-002,6.687363E-002,
   **   ~~~   ** Air System Named = CENTRAL SYSTEM did not converge for energy
   **   ~~~   ** Check values should be zero. Most Recent values listed first.
   **   ~~~   ** Demand-to-Supply interface energy check value iteration history trace: 1325.190390,1325.190390,1325.190389,1325.190389,1325.190389,1325.190389,1325.190389,1325.190389,1325.190389,1325.190389,
   **   ~~~   ** Supply-to-demand interface deck 1 energy check value iteration history trace: 2405.600330,2405.600329,2405.600329,2405.600329,2405.600329,2405.600329,2405.600329,2405.600329,2405.600329,2405.600329,
   ** Warning ** SimHVAC: Maximum iterations (20) exceeded for all HVAC loops, at ANNUAL, 05/25 08:15 - 08:30
   **   ~~~   ** The solution for one or more of the Air Loop HVAC systems did not appear to converge
   **   ~~~   ** Air System Named = CENTRAL SYSTEM did not converge for mass flow rate
   **   ~~~   ** Check values should be zero. Most Recent values listed first.
   **   ~~~   ** Demand-to-Supply interface mass flow rate check value iteration history trace: 5.536779E-002,5.536779E-002,5.536779E-002,5.536779E-002,5.536779E-002,5.536779E-002,5.536779E-002,5.536779E-002,5.536779E-002,5.536779E-002,
   **   ~~~   ** Supply-to-demand interface deck 1 mass flow rate check value iteration history trace: 5.536779E-002,5.536779E-002,5.536779E-002,5.536779E-002,5.536779E-002,5.536779E-002,5.536779E-002,5.536779E-002,5.536779E-002,5.536779E-002,
   **   ~~~   ** Air System Named = CENTRAL SYSTEM did not converge for energy
   **   ~~~   ** Check values should be zero. Most Recent values listed first.
   **   ~~~   ** Demand-to-Supply interface energy check value iteration history trace: 1097.196869,1097.196869,1097.196869,1097.196869,1097.196869,1097.196868,1097.196868,1097.196868,1097.196868,1097.196868,
   **   ~~~   ** Supply-to-demand interface deck 1 energy check value iteration history trace: 1991.499503,1991.499502,1991.499502,1991.499502,1991.499502,1991.499502,1991.499502,1991.499502,1991.499502,1991.499502,
   ** Warning ** SimHVAC: Maximum iterations (20) exceeded for all HVAC loops, at ANNUAL, 05/26 09:00 - 09:15
   **   ~~~   ** The solution for one or more of the Air Loop HVAC systems did not appear to converge
   **   ~~~   ** Air System Named = CENTRAL SYSTEM did not converge for mass flow rate
   **   ~~~   ** Check values should be zero. Most Recent values listed first.
   **   ~~~   ** Demand-to-Supply interface mass flow rate check value iteration history trace: 5.426007E-002,5.426007E-002,5.426007E-002,5.426007E-002,5.426007E-002,5.426007E-002,5.426007E-002,5.426007E-002,5.426007E-002,5.426007E-002,
   **   ~~~   ** Supply-to-demand interface deck 1 mass flow rate check value iteration history trace: 5.426007E-002,5.426007E-002,5.426007E-002,5.426007E-002,5.426007E-002,5.426007E-002,5.426007E-002,5.426007E-002,5.426007E-002,5.426007E-002,
   **   ~~~   ** Air System Named = CENTRAL SYSTEM did not converge for energy
   **   ~~~   ** Check values should be zero. Most Recent values listed first.
   **   ~~~   ** Demand-to-Supply interface energy check value iteration history trace: 1068.820990,1068.820990,1068.820990,1068.820990,1068.820990,1068.820990,1068.820990,1068.820990,1068.820990,1068.820990,
   **   ~~~   ** Supply-to-demand interface deck 1 energy check value iteration history trace: 2024.420566,2024.420566,2024.420566,2024.420566,2024.420566,2024.420565,2024.420565,2024.420565,2024.420565,2024.420565,
   ************* Simulation Error Summary *************
   ** Warning ** The following Report Variables were requested but not generated -- check.rdd file
   **   ~~~   ** Either the IDF did not contain these elements, the variable name is misspelled,
   **   ~~~   ** or the requested variable is an advanced output which requires Output : Diagnostics, DisplayAdvancedReportVariables;
   ************* Key=*, VarName=BASEBOARD TOTAL HEATING ENERGY, Frequency=
   ************* Key=*, VarName=WATER HEATER NATURALGAS ENERGY, Frequency=
   ************* Key=*, VarName=COOLING COIL TOTAL HEATING ENERGY, Frequency=
   ************* There are 34 unused schedules in input.
   ************* There are 388 unused week schedules in input.
   ************* There are 396 unused day schedules in input.
   ************* Use Output:Diagnostics,DisplayUnusedSchedules; to see them.
   *************
   ************* ===== Recurring Error Summary =====
   ************* The following recurring error messages occurred.
   *************
   *************  ** Warning ** "TOTAL HOT WATER LOAD" - Target water temperature should be less than or equal to the hot water temperature error continues...
   *************  **   ~~~   **   This error occurred 126295 total times;
   *************  **   ~~~   **   during Warmup 0 times;
   *************  **   ~~~   **   during Sizing 0 times.
   *************  **   ~~~   **   Max=14.990685  Min=2.466868E-004
   *************
   *************  ** Warning ** SimHVAC: Exceeding Maximum iterations for all HVAC loops, during ANNUAL continues
   *************  **   ~~~   **   This error occurred 9 total times;
   *************  **   ~~~   **   during Warmup 0 times;
   *************  **   ~~~   **   during Sizing 0 times.
   *************
   *************
   ************* ===== Final Error Summary =====
   ************* The following error categories occurred.  Consider correcting or noting.
   ************* Nominally Unused Constructions
   ************* ..The nominally unused constructions warning is provided to alert you to potential conditions that can cause
   ************* ..extra time during simulation. Each construction is calculated by the algorithm indicated in the HeatBalanceAlgorithm
   ************* ..object. You may remove the constructions indicated (when you use the DisplayExtraWarnings option).
   *************
   ************* EnergyPlus Warmup Error Summary. During Warmup: 1 Warning; 0 Severe Errors.
   ************* EnergyPlus Sizing Error Summary. During Sizing: 4 Warning; 0 Severe Errors.
   ************* EnergyPlus Completed Successfully-- 126337 Warning; 0 Severe Errors; Elapsed Time=00hr 01min 38.25sec
