Program Version,EnergyPlus, Version 22.2.0-c249759bad, YMD=2023.09.01 14:56,
   ************* Beginning Zone Sizing Calculations
   ** Warning ** ProcessScheduleInput: Schedule:Constant="ALWAYS ON DISCRETE", Schedule Type Limits Name="ONOFF" not found -- will not be validated
   ** Warning ** Foundation:Kiva="KIVA FOUNDATION", no Interior Horizontal Insulation Material Name defined
   **   ~~~   ** Interior Horizontal Insulation Depth will not be used.
   ** Warning ** CheckUsedConstructions: There are 15 nominally unused constructions in input.
   **   ~~~   ** Each Unused construction is shown.
   ************* Construction=INTERIOR FLOOR
   ************* Construction=INTERIOR WINDOW
   ************* Construction=EXTERIOR DOOR
   ************* Construction=INTERIOR DOOR
   ************* Construction=GABLE CONSTRUCTION
   ************* Construction=CRAWL_FLOOR
   ************* Construction=INSULATED PIPE
   ************* Construction=PLAIN PIPE
   ************* Construction=TDD PIPE
   ************* Construction=TDD DOME
   ************* Construction=TDD DIFFUSER
   ************* Construction=CRAWL WALL
   ************* Construction=CEILING-FLOOR-LAYER
   ************* Construction=SLAB CONSTRUCTION W FULL R10 INSULATION
   ************* Construction=SLAB CONSTRUCTION W FULL R5 INSULATION
   ** Warning ** GetDXCoils: Coil:Heating:DX:SingleSpeed="DX_HEATING_COIL" curve values
   **   ~~~   ** ... Defrost Energy Input Ratio Function of Temperature Curve Name = DEFROSTEIR output is not equal to 1.0 (+ or - 10%) at rated conditions.
   **   ~~~   ** ... Curve output at rated conditions = 0.152
   ************* Beginning System Sizing Calculations
   ************* Beginning Plant Sizing Calculations
   ** Warning ** Coil:WaterHeating:AirToWaterHeatPump:Wrapped "HEAT PUMP WATER HEATER EVAPORATOR": Rated air volume flow rate per watt of rated total water heating capacity is out of range
   **   ~~~   ** Min Rated Vol Flow Per Watt=[4.027E-005], Rated Vol Flow Per Watt=[1.386E-004], Max Rated Vol Flow Per Watt=[8.056E-005]. See Input-Output Reference Manual for valid range.
   ** Warning ** Water heater = WATER HEATER TANK:  Recovery Efficiency and Energy Factor could not be calculated during the test for standard ratings
   **   ~~~   ** Setpoint was never recovered and/or heater never turned on
   ** Warning ** Check input. Pump nominal power or motor efficiency is set to 0, for pump=MAINS PRESSURE
   ** Warning ** Output:Meter: invalid Key Name="ELECTRIC_RANGE:INTERIOREQUIPMENT:ELECTRICITY" - not found.
   ** Warning ** Output:Meter: invalid Key Name="ELECTRIC_DRYER:INTERIOREQUIPMENT:ELECTRICITY" - not found.
   ** Warning ** Output:Meter: invalid Key Name="HEATRECOVERY:ELECTRICITY" - not found.
   ** Warning ** Output:Meter: invalid Key Name="HEATING:NATURALGAS" - not found.
   ** Warning ** Output:Meter: invalid Key Name="WATERSYSTEMS:NATURALGAS" - not found.
   ** Warning ** Output:Meter: invalid Key Name="PROPANE:FACILITY" - not found.
   ** Warning ** Output:Meter: invalid Key Name="HEATING:PROPANE" - not found.
   ************* Testing Individual Branch Integrity
   ************* All Branches passed integrity testing
   ************* Testing Individual Supply Air Path Integrity
   ************* All Supply Air Paths passed integrity testing
   ************* Testing Individual Return Air Path Integrity
   ************* All Return Air Paths passed integrity testing
   ************* No node connection errors were found.
   ************* Beginning Simulation
   ** Warning ** AirflowNetwork::Solver::validate_distribution: Heat pump water heater is simulated along with an AirflowNetwork but is not included in the AirflowNetwork.
   ** Warning ** CalcEquipmentFlowRates: "TOTAL HOT WATER LOAD" - Target water temperature is greater than the hot water temperature by (1.62 C)
   **   ~~~   **  Environment=EXTREME_WINTER, at Simulation time=02/17 06:00 - 06:15
   **   ~~~   ** ...target water temperature     = 53.33 C
   **   ~~~   ** ...hot water temperature        = 51.71 C
   **   ~~~   ** ...Target water temperature should be less than or equal to the hot water temperature. Verify temperature setpoints and schedules.
   ** Warning ** SimHVAC: Maximum iterations (20) exceeded for all HVAC loops, at ANNUAL, 01/22 12:45 - 13:00
   **   ~~~   ** The solution for one or more of the Air Loop HVAC systems did not appear to converge
   **   ~~~   ** Air System Named = CENTRAL SYSTEM did not converge for mass flow rate
   **   ~~~   ** Check values should be zero. Most Recent values listed first.
   **   ~~~   ** Demand-to-Supply interface mass flow rate check value iteration history trace: 6.694104E-002,6.694104E-002,6.694104E-002,6.694104E-002,6.694104E-002,6.694104E-002,6.694104E-002,6.694104E-002,6.694104E-002,6.694104E-002,
   **   ~~~   ** Supply-to-demand interface deck 1 mass flow rate check value iteration history trace: 6.694104E-002,6.694104E-002,6.694104E-002,6.694104E-002,6.694104E-002,6.694104E-002,6.694104E-002,6.694104E-002,6.694104E-002,6.694104E-002,
   **   ~~~   ** Air System Named = CENTRAL SYSTEM did not converge for energy
   **   ~~~   ** Check values should be zero. Most Recent values listed first.
   **   ~~~   ** Demand-to-Supply interface energy check value iteration history trace: 1326.563365,1326.563365,1326.563365,1326.563365,1326.563364,1326.563364,1326.563364,1326.563364,1326.563364,1326.563364,
   **   ~~~   ** Supply-to-demand interface deck 1 energy check value iteration history trace: 2130.870428,2130.870428,2130.870428,2130.870427,2130.870427,2130.870427,2130.870427,2130.870427,2130.870427,2130.870427,
   ** Warning ** SimHVAC: Maximum iterations (20) exceeded for all HVAC loops, at ANNUAL, 02/07 20:53 - 21:00
   **   ~~~   ** The solution for one or more of the Air Loop HVAC systems did not appear to converge
   **   ~~~   ** Air System Named = CENTRAL SYSTEM did not converge for mass flow rate
   **   ~~~   ** Check values should be zero. Most Recent values listed first.
   **   ~~~   ** Demand-to-Supply interface mass flow rate check value iteration history trace: 6.899304E-002,6.899304E-002,6.899304E-002,6.899304E-002,6.899304E-002,6.899304E-002,6.899304E-002,6.899304E-002,6.899304E-002,6.899304E-002,
   **   ~~~   ** Supply-to-demand interface deck 1 mass flow rate check value iteration history trace: 6.899304E-002,6.899304E-002,6.899304E-002,6.899304E-002,6.899304E-002,6.899304E-002,6.899304E-002,6.899304E-002,6.899304E-002,6.899304E-002,
   **   ~~~   ** Air System Named = CENTRAL SYSTEM did not converge for energy
   **   ~~~   ** Check values should be zero. Most Recent values listed first.
   **   ~~~   ** Demand-to-Supply interface energy check value iteration history trace: 1346.890960,1346.890960,1346.890960,1346.890960,1346.890960,1346.890960,1346.890960,1346.890960,1346.890960,1346.890960,
   **   ~~~   ** Supply-to-demand interface deck 1 energy check value iteration history trace: 2400.556144,2400.556144,2400.556144,2400.556144,2400.556144,2400.556143,2400.556143,2400.556143,2400.556143,2400.556143,
   ** Warning ** SimHVAC: Maximum iterations (20) exceeded for all HVAC loops, at ANNUAL, 02/11 11:30 - 11:35
   **   ~~~   ** The solution for one or more of the Air Loop HVAC systems did not appear to converge
   **   ~~~   ** Air System Named = CENTRAL SYSTEM did not converge for mass flow rate
   **   ~~~   ** Check values should be zero. Most Recent values listed first.
   **   ~~~   ** Demand-to-Supply interface mass flow rate check value iteration history trace: 5.918206E-002,5.918206E-002,5.918206E-002,5.918206E-002,5.918206E-002,5.918206E-002,5.918206E-002,5.918206E-002,5.918206E-002,5.918206E-002,
   **   ~~~   ** Supply-to-demand interface deck 1 mass flow rate check value iteration history trace: 5.918206E-002,5.918206E-002,5.918206E-002,5.918206E-002,5.918206E-002,5.918206E-002,5.918206E-002,5.918206E-002,5.918206E-002,5.918206E-002,
   **   ~~~   ** Air System Named = CENTRAL SYSTEM did not converge for energy
   **   ~~~   ** Check values should be zero. Most Recent values listed first.
   **   ~~~   ** Demand-to-Supply interface energy check value iteration history trace: 1172.784998,1172.784998,1172.784998,1172.784998,1172.784998,1172.784998,1172.784998,1172.784998,1172.784998,1172.784998,
   **   ~~~   ** Supply-to-demand interface deck 1 energy check value iteration history trace: 2047.890721,2047.890721,2047.890721,2047.890721,2047.890721,2047.890721,2047.890721,2047.890721,2047.890721,2047.890721,
   ** Warning ** SimHVAC: Maximum iterations (20) exceeded for all HVAC loops, at ANNUAL, 03/12 11:45 - 11:52
   **   ~~~   ** The solution for one or more of the Air Loop HVAC systems did not appear to converge
   **   ~~~   ** Air System Named = CENTRAL SYSTEM did not converge for mass flow rate
   **   ~~~   ** Check values should be zero. Most Recent values listed first.
   **   ~~~   ** Demand-to-Supply interface mass flow rate check value iteration history trace: 6.380883E-002,6.380883E-002,6.380883E-002,6.380883E-002,6.380883E-002,6.380883E-002,6.380883E-002,6.380883E-002,6.380883E-002,6.380883E-002,
   **   ~~~   ** Supply-to-demand interface deck 1 mass flow rate check value iteration history trace: 6.380883E-002,6.380883E-002,6.380883E-002,6.380883E-002,6.380883E-002,6.380883E-002,6.380883E-002,6.380883E-002,6.380883E-002,6.380883E-002,
   **   ~~~   ** Air System Named = CENTRAL SYSTEM did not converge for energy
   **   ~~~   ** Check values should be zero. Most Recent values listed first.
   **   ~~~   ** Demand-to-Supply interface energy check value iteration history trace: 1260.309692,1260.309692,1260.309692,1260.309692,1260.309691,1260.309691,1260.309691,1260.309691,1260.309691,1260.309691,
   **   ~~~   ** Supply-to-demand interface deck 1 energy check value iteration history trace: 2236.840280,2236.840280,2236.840280,2236.840280,2236.840280,2236.840279,2236.840279,2236.840279,2236.840279,2236.840279,
   **   ~~~   ** Node named ZONE INLET NODE shows oscillating temperatures across iterations with a repeated value of 34.886357
   **   ~~~   ** Node named ZONE INLET NODE temperature [C] iteration history trace (most recent first): 34.886357,34.886357,34.886357,34.886356,34.886356,34.886356,34.886356,34.886356,34.886355,34.886355,
   ** Warning ** SimHVAC: Maximum iterations (20) exceeded for all HVAC loops, at ANNUAL, 03/14 09:15 - 09:17
   **   ~~~   ** The solution for one or more of the Air Loop HVAC systems did not appear to converge
   **   ~~~   ** Air System Named = CENTRAL SYSTEM did not converge for mass flow rate
   **   ~~~   ** Check values should be zero. Most Recent values listed first.
   **   ~~~   ** Demand-to-Supply interface mass flow rate check value iteration history trace: 5.940331E-002,5.940331E-002,5.940331E-002,5.940331E-002,5.940331E-002,5.940331E-002,5.940331E-002,5.940331E-002,5.940331E-002,5.940331E-002,
   **   ~~~   ** Supply-to-demand interface deck 1 mass flow rate check value iteration history trace: 5.940331E-002,5.940331E-002,5.940331E-002,5.940331E-002,5.940331E-002,5.940331E-002,5.940331E-002,5.940331E-002,5.940331E-002,5.940331E-002,
   **   ~~~   ** Air System Named = CENTRAL SYSTEM did not converge for energy
   **   ~~~   ** Check values should be zero. Most Recent values listed first.
   **   ~~~   ** Demand-to-Supply interface energy check value iteration history trace: 1177.199373,1177.199373,1177.199373,1177.199373,1177.199373,1177.199373,1177.199373,1177.199373,1177.199373,1177.199372,
   **   ~~~   ** Supply-to-demand interface deck 1 energy check value iteration history trace: 2137.035297,2137.035297,2137.035297,2137.035297,2137.035297,2137.035297,2137.035297,2137.035297,2137.035297,2137.035296,
   ** Warning ** SimHVAC: Maximum iterations (20) exceeded for all HVAC loops, at ANNUAL, 03/26 09:15 - 09:30
   **   ~~~   ** The solution for one or more of the Air Loop HVAC systems did not appear to converge
   **   ~~~   ** Air System Named = CENTRAL SYSTEM did not converge for mass flow rate
   **   ~~~   ** Check values should be zero. Most Recent values listed first.
   **   ~~~   ** Demand-to-Supply interface mass flow rate check value iteration history trace: 5.181514E-002,5.181514E-002,5.181514E-002,5.181514E-002,5.181514E-002,5.181514E-002,5.181514E-002,5.181514E-002,5.181514E-002,5.181514E-002,
   **   ~~~   ** Supply-to-demand interface deck 1 mass flow rate check value iteration history trace: 5.181514E-002,5.181514E-002,5.181514E-002,5.181514E-002,5.181514E-002,5.181514E-002,5.181514E-002,5.181514E-002,5.181514E-002,5.181514E-002,
   **   ~~~   ** Air System Named = CENTRAL SYSTEM did not converge for energy
   **   ~~~   ** Check values should be zero. Most Recent values listed first.
   **   ~~~   ** Demand-to-Supply interface energy check value iteration history trace: 1026.798428,1026.798428,1026.798428,1026.798428,1026.798428,1026.798428,1026.798428,1026.798428,1026.798428,1026.798428,
   **   ~~~   ** Supply-to-demand interface deck 1 energy check value iteration history trace: 1986.232934,1986.232934,1986.232934,1986.232933,1986.232933,1986.232933,1986.232933,1986.232933,1986.232933,1986.232933,
   ** Warning ** SimHVAC: Maximum iterations (20) exceeded for all HVAC loops, at ANNUAL, 03/29 16:15 - 16:22
   **   ~~~   ** The solution for one or more of the Air Loop HVAC systems did not appear to converge
   **   ~~~   ** Air System Named = CENTRAL SYSTEM did not converge for mass flow rate
   **   ~~~   ** Check values should be zero. Most Recent values listed first.
   **   ~~~   ** Demand-to-Supply interface mass flow rate check value iteration history trace: 6.926868E-002,6.926868E-002,6.926868E-002,6.926868E-002,6.926868E-002,6.926868E-002,6.926868E-002,6.926868E-002,6.926868E-002,6.926868E-002,
   **   ~~~   ** Supply-to-demand interface deck 1 mass flow rate check value iteration history trace: 6.926868E-002,6.926868E-002,6.926868E-002,6.926868E-002,6.926868E-002,6.926868E-002,6.926868E-002,6.926868E-002,6.926868E-002,6.926868E-002,
   **   ~~~   ** Air System Named = CENTRAL SYSTEM did not converge for energy
   **   ~~~   ** Check values should be zero. Most Recent values listed first.
   **   ~~~   ** Demand-to-Supply interface energy check value iteration history trace: 1372.639872,1372.639872,1372.639872,1372.639872,1372.639872,1372.639872,1372.639872,1372.639872,1372.639872,1372.639872,
   **   ~~~   ** Supply-to-demand interface deck 1 energy check value iteration history trace: 2485.152267,2485.152267,2485.152267,2485.152267,2485.152267,2485.152267,2485.152266,2485.152266,2485.152266,2485.152266,
   ** Warning ** SimHVAC: Maximum iterations (20) exceeded for all HVAC loops, at ANNUAL, 04/01 10:45 - 10:50
   **   ~~~   ** The solution for one or more of the Air Loop HVAC systems did not appear to converge
   **   ~~~   ** Air System Named = CENTRAL SYSTEM did not converge for mass flow rate
   **   ~~~   ** Check values should be zero. Most Recent values listed first.
   **   ~~~   ** Demand-to-Supply interface mass flow rate check value iteration history trace: 6.352282E-002,6.352282E-002,6.352282E-002,6.352282E-002,6.352282E-002,6.352282E-002,6.352282E-002,6.352282E-002,6.352282E-002,6.352282E-002,
   **   ~~~   ** Supply-to-demand interface deck 1 mass flow rate check value iteration history trace: 6.352282E-002,6.352282E-002,6.352282E-002,6.352282E-002,6.352282E-002,6.352282E-002,6.352282E-002,6.352282E-002,6.352282E-002,6.352282E-002,
   **   ~~~   ** Air System Named = CENTRAL SYSTEM did not converge for energy
   **   ~~~   ** Check values should be zero. Most Recent values listed first.
   **   ~~~   ** Demand-to-Supply interface energy check value iteration history trace: 1254.302197,1254.302197,1254.302197,1254.302197,1254.302196,1254.302196,1254.302196,1254.302196,1254.302196,1254.302196,
   **   ~~~   ** Supply-to-demand interface deck 1 energy check value iteration history trace: 2252.626435,2252.626435,2252.626434,2252.626434,2252.626434,2252.626434,2252.626434,2252.626434,2252.626434,2252.626434,
   ** Warning ** SimHVAC: Maximum iterations (20) exceeded for all HVAC loops, at ANNUAL, 04/30 08:45 - 08:50
   **   ~~~   ** The solution for one or more of the Air Loop HVAC systems did not appear to converge
   **   ~~~   ** Air System Named = CENTRAL SYSTEM did not converge for mass flow rate
   **   ~~~   ** Check values should be zero. Most Recent values listed first.
   **   ~~~   ** Demand-to-Supply interface mass flow rate check value iteration history trace: 7.755482E-002,7.755482E-002,7.755482E-002,7.755482E-002,7.755482E-002,7.755482E-002,7.755482E-002,7.755482E-002,7.755482E-002,7.755482E-002,
   **   ~~~   ** Supply-to-demand interface deck 1 mass flow rate check value iteration history trace: 7.755482E-002,7.755482E-002,7.755482E-002,7.755482E-002,7.755482E-002,7.755482E-002,7.755482E-002,7.755482E-002,7.755482E-002,7.755482E-002,
   **   ~~~   ** Air System Named = CENTRAL SYSTEM did not converge for energy
   **   ~~~   ** Check values should be zero. Most Recent values listed first.
   **   ~~~   ** Demand-to-Supply interface energy check value iteration history trace: 1536.951965,1536.951965,1536.951964,1536.951964,1536.951964,1536.951964,1536.951963,1536.951963,1536.951963,1536.951962,
   **   ~~~   ** Supply-to-demand interface deck 1 energy check value iteration history trace: 2818.321182,2818.321181,2818.321181,2818.321180,2818.321180,2818.321179,2818.321179,2818.321178,2818.321178,2818.321177,
   **   ~~~   ** Node named ZONE INLET NODE shows oscillating temperatures across iterations with a repeated value of 36.164554
   **   ~~~   ** Node named ZONE INLET NODE temperature [C] iteration history trace (most recent first): 36.164554,36.164554,36.164553,36.164553,36.164553,36.164553,36.164552,36.164552,36.164552,36.164551,
   ** Warning ** SimHVAC: Maximum iterations (20) exceeded for all HVAC loops, at ANNUAL, 05/01 07:15 - 07:20
   **   ~~~   ** The solution for one or more of the Air Loop HVAC systems did not appear to converge
   **   ~~~   ** Air System Named = CENTRAL SYSTEM did not converge for mass flow rate
   **   ~~~   ** Check values should be zero. Most Recent values listed first.
   **   ~~~   ** Demand-to-Supply interface mass flow rate check value iteration history trace: 6.097964E-002,6.097964E-002,6.097964E-002,6.097964E-002,6.097964E-002,6.097964E-002,6.097964E-002,6.097964E-002,6.097964E-002,6.097964E-002,
   **   ~~~   ** Supply-to-demand interface deck 1 mass flow rate check value iteration history trace: 6.097964E-002,6.097964E-002,6.097964E-002,6.097964E-002,6.097964E-002,6.097964E-002,6.097964E-002,6.097964E-002,6.097964E-002,6.097964E-002,
   **   ~~~   ** Air System Named = CENTRAL SYSTEM did not converge for energy
   **   ~~~   ** Check values should be zero. Most Recent values listed first.
   **   ~~~   ** Demand-to-Supply interface energy check value iteration history trace: 1198.292756,1198.292756,1198.292756,1198.292756,1198.292756,1198.292756,1198.292756,1198.292756,1198.292755,1198.292755,
   **   ~~~   ** Supply-to-demand interface deck 1 energy check value iteration history trace: 2320.743901,2320.743901,2320.743901,2320.743901,2320.743901,2320.743901,2320.743901,2320.743901,2320.743901,2320.743901,
   **   ~~~   ** Node named ZONE INLET NODE shows oscillating temperatures across iterations with a repeated value of 37.874227
   **   ~~~   ** Node named ZONE INLET NODE temperature [C] iteration history trace (most recent first): 37.874227,37.874226,37.874226,37.874226,37.874226,37.874225,37.874225,37.874225,37.874225,37.874224,
   ** Warning ** SimHVAC: Maximum iterations (20) exceeded for all HVAC loops, at ANNUAL, 11/19 08:45 - 09:00
   **   ~~~   ** The solution for one or more of the Air Loop HVAC systems did not appear to converge
   **   ~~~   ** Air System Named = CENTRAL SYSTEM did not converge for mass flow rate
   **   ~~~   ** Check values should be zero. Most Recent values listed first.
   **   ~~~   ** Demand-to-Supply interface mass flow rate check value iteration history trace: 5.736988E-002,5.736988E-002,5.736988E-002,5.736988E-002,5.736988E-002,5.736988E-002,5.736988E-002,5.736988E-002,5.736988E-002,5.736988E-002,
   **   ~~~   ** Supply-to-demand interface deck 1 mass flow rate check value iteration history trace: 5.736988E-002,5.736988E-002,5.736988E-002,5.736988E-002,5.736988E-002,5.736988E-002,5.736988E-002,5.736988E-002,5.736988E-002,5.736988E-002,
   **   ~~~   ** Air System Named = CENTRAL SYSTEM did not converge for energy
   **   ~~~   ** Check values should be zero. Most Recent values listed first.
   **   ~~~   ** Demand-to-Supply interface energy check value iteration history trace: 1134.747290,1134.747289,1134.747289,1134.747289,1134.747289,1134.747289,1134.747288,1134.747288,1134.747288,1134.747288,
   **   ~~~   ** Supply-to-demand interface deck 1 energy check value iteration history trace: 2144.648057,2144.648057,2144.648057,2144.648056,2144.648056,2144.648055,2144.648055,2144.648055,2144.648054,2144.648054,
   **   ~~~   ** Node named ZONE INLET NODE shows oscillating temperatures across iterations with a repeated value of 37.202619
   **   ~~~   ** Node named ZONE INLET NODE temperature [C] iteration history trace (most recent first): 37.202619,37.202618,37.202618,37.202618,37.202617,37.202617,37.202617,37.202617,37.202616,37.202616,
   ** Warning ** SimHVAC: Maximum iterations (20) exceeded for all HVAC loops, at ANNUAL, 11/27 19:45 - 20:00
   **   ~~~   ** The solution for one or more of the Air Loop HVAC systems did not appear to converge
   **   ~~~   ** Air System Named = CENTRAL SYSTEM did not converge for mass flow rate
   **   ~~~   ** Check values should be zero. Most Recent values listed first.
   **   ~~~   ** Demand-to-Supply interface mass flow rate check value iteration history trace: 9.364104E-002,9.364104E-002,9.364104E-002,9.364104E-002,9.364104E-002,9.364104E-002,9.364104E-002,9.364104E-002,9.364104E-002,9.364104E-002,
   **   ~~~   ** Supply-to-demand interface deck 1 mass flow rate check value iteration history trace: 9.364104E-002,9.364104E-002,9.364104E-002,9.364104E-002,9.364104E-002,9.364104E-002,9.364104E-002,9.364104E-002,9.364104E-002,9.364104E-002,
   **   ~~~   ** Air System Named = CENTRAL SYSTEM did not converge for energy
   **   ~~~   ** Check values should be zero. Most Recent values listed first.
   **   ~~~   ** Demand-to-Supply interface energy check value iteration history trace: 1853.730578,1853.730578,1853.730578,1853.730578,1853.730578,1853.730577,1853.730577,1853.730577,1853.730577,1853.730577,
   **   ~~~   ** Supply-to-demand interface deck 1 energy check value iteration history trace: 2913.539390,2913.539390,2913.539390,2913.539390,2913.539389,2913.539389,2913.539389,2913.539389,2913.539389,2913.539388,
   ** Warning ** SimHVAC: Maximum iterations (20) exceeded for all HVAC loops, at ANNUAL, 12/31 20:30 - 20:38
   **   ~~~   ** The solution for one or more of the Air Loop HVAC systems did not appear to converge
   **   ~~~   ** Air System Named = CENTRAL SYSTEM did not converge for mass flow rate
   **   ~~~   ** Check values should be zero. Most Recent values listed first.
   **   ~~~   ** Demand-to-Supply interface mass flow rate check value iteration history trace: 7.262847E-002,7.262847E-002,7.262847E-002,7.262847E-002,7.262847E-002,7.262847E-002,7.262847E-002,7.262847E-002,7.262847E-002,7.262847E-002,
   **   ~~~   ** Supply-to-demand interface deck 1 mass flow rate check value iteration history trace: 7.262847E-002,7.262847E-002,7.262847E-002,7.262847E-002,7.262847E-002,7.262847E-002,7.262847E-002,7.262847E-002,7.262847E-002,7.262847E-002,
   **   ~~~   ** Air System Named = CENTRAL SYSTEM did not converge for energy
   **   ~~~   ** Check values should be zero. Most Recent values listed first.
   **   ~~~   ** Demand-to-Supply interface energy check value iteration history trace: 1435.482521,1435.482520,1435.482520,1435.482520,1435.482519,1435.482519,1435.482519,1435.482518,1435.482518,1435.482518,
   **   ~~~   ** Supply-to-demand interface deck 1 energy check value iteration history trace: 2565.833060,2565.833059,2565.833059,2565.833058,2565.833058,2565.833057,2565.833057,2565.833056,2565.833055,2565.833055,
   **   ~~~   ** Node named ZONE INLET NODE shows oscillating temperatures across iterations with a repeated value of 35.157900
   **   ~~~   ** Node named ZONE INLET NODE temperature [C] iteration history trace (most recent first): 35.157900,35.157900,35.157899,35.157899,35.157899,35.157898,35.157898,35.157898,35.157898,35.157897,
   ************* Simulation Error Summary *************
   ** Warning ** The following Report Variables were requested but not generated -- check.rdd file
   **   ~~~   ** Either the IDF did not contain these elements, the variable name is misspelled,
   **   ~~~   ** or the requested variable is an advanced output which requires Output : Diagnostics, DisplayAdvancedReportVariables;
   ************* Key=*, VarName=BASEBOARD TOTAL HEATING ENERGY, Frequency=
   ************* Key=*, VarName=WATER HEATER NATURALGAS ENERGY, Frequency=
   ************* Key=*, VarName=COOLING COIL TOTAL HEATING ENERGY, Frequency=
   ************* There are 34 unused schedules in input.
   ************* There are 388 unused week schedules in input.
   ************* There are 396 unused day schedules in input.
   ************* Use Output:Diagnostics,DisplayUnusedSchedules; to see them.
   *************
   ************* ===== Recurring Error Summary =====
   ************* The following recurring error messages occurred.
   *************
   *************  ** Warning ** "TOTAL HOT WATER LOAD" - Target water temperature should be less than or equal to the hot water temperature error continues...
   *************  **   ~~~   **   This error occurred 88947 total times;
   *************  **   ~~~   **   during Warmup 0 times;
   *************  **   ~~~   **   during Sizing 0 times.
   *************  **   ~~~   **   Max=9.45036  Min=2.441005E-005
   *************
   *************
   ************* ===== Final Error Summary =====
   ************* The following error categories occurred.  Consider correcting or noting.
   ************* Nominally Unused Constructions
   ************* ..The nominally unused constructions warning is provided to alert you to potential conditions that can cause
   ************* ..extra time during simulation. Each construction is calculated by the algorithm indicated in the HeatBalanceAlgorithm
   ************* ..object. You may remove the constructions indicated (when you use the DisplayExtraWarnings option).
   *************
   ************* EnergyPlus Warmup Error Summary. During Warmup: 1 Warning; 0 Severe Errors.
   ************* EnergyPlus Sizing Error Summary. During Sizing: 4 Warning; 0 Severe Errors.
   ************* EnergyPlus Completed Successfully-- 88977 Warning; 0 Severe Errors; Elapsed Time=00hr 05min 19.38sec
