Program Version,EnergyPlus, Version 22.2.0-c249759bad, YMD=2023.09.01 19:50,
   ************* Beginning Zone Sizing Calculations
   ** Warning ** ProcessScheduleInput: Schedule:Constant="ALWAYS ON DISCRETE", Schedule Type Limits Name="ONOFF" not found -- will not be validated
   ** Warning ** Foundation:Kiva="KIVA FOUNDATION", no Interior Horizontal Insulation Material Name defined
   **   ~~~   ** Interior Horizontal Insulation Depth will not be used.
   ** Warning ** CheckUsedConstructions: There are 15 nominally unused constructions in input.
   **   ~~~   ** Each Unused construction is shown.
   ************* Construction=INTERIOR FLOOR
   ************* Construction=INTERIOR WINDOW
   ************* Construction=EXTERIOR DOOR
   ************* Construction=INTERIOR DOOR
   ************* Construction=GABLE CONSTRUCTION
   ************* Construction=CRAWL_FLOOR
   ************* Construction=INSULATED PIPE
   ************* Construction=PLAIN PIPE
   ************* Construction=TDD PIPE
   ************* Construction=TDD DOME
   ************* Construction=TDD DIFFUSER
   ************* Construction=CRAWL WALL
   ************* Construction=CEILING-FLOOR-LAYER
   ************* Construction=SLAB CONSTRUCTION W FULL R10 INSULATION
   ************* Construction=SLAB CONSTRUCTION W FULL R5 INSULATION
   ** Warning ** GetDXCoils: Coil:Heating:DX:SingleSpeed="DX_HEATING_COIL" curve values
   **   ~~~   ** ... Defrost Energy Input Ratio Function of Temperature Curve Name = DEFROSTEIR output is not equal to 1.0 (+ or - 10%) at rated conditions.
   **   ~~~   ** ... Curve output at rated conditions = 0.152
   ************* Beginning System Sizing Calculations
   ************* Beginning Plant Sizing Calculations
   ** Warning ** SizeDXCoil Coil:Cooling:DX:SingleSpeed DX_COOLING_COIL
   **   ~~~   ** ...Gross Rated Total Cooling Capacity [W] will be limited by the maximum rated volume flow per rated total capacity ratio.
   **   ~~~   ** ...DX coil volume flow rate ( m3/s ) = 0.549931
   **   ~~~   ** ...Requested capacity ( W ) = 7581.866
   **   ~~~   ** ...Requested flow/capacity ratio ( m3/s/W ) = 7.253E-005
   **   ~~~   ** ...Maximum flow/capacity ratio ( m3/s/W ) = 6.041E-005
   **   ~~~   ** ...Adjusted capacity ( W ) = 9103.318
   ** Warning ** Coil:WaterHeating:AirToWaterHeatPump:Wrapped "HEAT PUMP WATER HEATER EVAPORATOR": Rated air volume flow rate per watt of rated total water heating capacity is out of range
   **   ~~~   ** Min Rated Vol Flow Per Watt=[4.027E-005], Rated Vol Flow Per Watt=[1.510E-004], Max Rated Vol Flow Per Watt=[8.056E-005]. See Input-Output Reference Manual for valid range.
   ************* SizeFan: : Potential issue with equipment sizing for Fan:OnOff HEAT PUMP WATER HEATER FAN
   **   ~~~   ** User-Specified Maximum Flow Rate [m3/s] = 0.22653
   **   ~~~   ** differs from Design Size Maximum Flow Rate [m3/s] = 7.55250E-002
   **   ~~~   ** This may, or may not, indicate mismatched component sizes.
   **   ~~~   ** Verify that the value entered is intended and is consistent with other components.
   ** Warning ** Water heater = WATER HEATER TANK:  Recovery Efficiency and Energy Factor could not be calculated during the test for standard ratings
   **   ~~~   ** Setpoint was never recovered and/or heater never turned on
   ** Warning ** Check input. Pump nominal power or motor efficiency is set to 0, for pump=MAINS PRESSURE
   ** Warning ** Output:Meter: invalid Key Name="ELECTRIC_RANGE:INTERIOREQUIPMENT:ELECTRICITY" - not found.
   ** Warning ** Output:Meter: invalid Key Name="ELECTRIC_DRYER:INTERIOREQUIPMENT:ELECTRICITY" - not found.
   ** Warning ** Output:Meter: invalid Key Name="HEATRECOVERY:ELECTRICITY" - not found.
   ** Warning ** Output:Meter: invalid Key Name="HEATING:NATURALGAS" - not found.
   ** Warning ** Output:Meter: invalid Key Name="WATERSYSTEMS:NATURALGAS" - not found.
   ** Warning ** Output:Meter: invalid Key Name="PROPANE:FACILITY" - not found.
   ** Warning ** Output:Meter: invalid Key Name="HEATING:PROPANE" - not found.
   ************* Testing Individual Branch Integrity
   ************* All Branches passed integrity testing
   ************* Testing Individual Supply Air Path Integrity
   ************* All Supply Air Paths passed integrity testing
   ************* Testing Individual Return Air Path Integrity
   ************* All Return Air Paths passed integrity testing
   ************* No node connection errors were found.
   ************* Beginning Simulation
   ** Warning ** AirflowNetwork::Solver::validate_distribution: Heat pump water heater is simulated along with an AirflowNetwork but is not included in the AirflowNetwork.
   ** Warning ** SimHVAC: Maximum iterations (20) exceeded for all HVAC loops, at EXTREME_WINTER, 01/13 03:25 - 03:30
   **   ~~~   ** The solution for one or more of the Air Loop HVAC systems did not appear to converge
   **   ~~~   ** Air System Named = CENTRAL SYSTEM did not converge for mass flow rate
   **   ~~~   ** Check values should be zero. Most Recent values listed first.
   **   ~~~   ** Demand-to-Supply interface mass flow rate check value iteration history trace: 5.461034E-002,5.461034E-002,5.461034E-002,5.461034E-002,5.461034E-002,5.461034E-002,5.461034E-002,5.461034E-002,5.461034E-002,5.461034E-002,
   **   ~~~   ** Supply-to-demand interface deck 1 mass flow rate check value iteration history trace: 5.461034E-002,5.461034E-002,5.461034E-002,5.461034E-002,5.461034E-002,5.461034E-002,5.461034E-002,5.461034E-002,5.461034E-002,5.461034E-002,
   **   ~~~   ** Air System Named = CENTRAL SYSTEM did not converge for energy
   **   ~~~   ** Check values should be zero. Most Recent values listed first.
   **   ~~~   ** Demand-to-Supply interface energy check value iteration history trace: 1020.442683,1020.442683,1020.442683,1020.442683,1020.442683,1020.442683,1020.442683,1020.442683,1020.442683,1020.442683,
   **   ~~~   ** Supply-to-demand interface deck 1 energy check value iteration history trace: 1718.166618,1718.166618,1718.166618,1718.166618,1718.166618,1718.166618,1718.166618,1718.166618,1718.166618,1718.166618,
   ** Warning ** CalcEquipmentFlowRates: "TOTAL HOT WATER LOAD" - Target water temperature is greater than the hot water temperature by (2.82 C)
   **   ~~~   **  Environment=EXTREME_WINTER, at Simulation time=01/13 06:00 - 06:15
   **   ~~~   ** ...target water temperature     = 53.33 C
   **   ~~~   ** ...hot water temperature        = 50.52 C
   **   ~~~   ** ...Target water temperature should be less than or equal to the hot water temperature. Verify temperature setpoints and schedules.
   ** Warning ** SimHVAC: Maximum iterations (20) exceeded for all HVAC loops, at EXTREME_WINTER, 01/15 08:49 - 08:52
   **   ~~~   ** The solution for one or more of the Air Loop HVAC systems did not appear to converge
   **   ~~~   ** Air System Named = CENTRAL SYSTEM did not converge for mass flow rate
   **   ~~~   ** Check values should be zero. Most Recent values listed first.
   **   ~~~   ** Demand-to-Supply interface mass flow rate check value iteration history trace: 6.710165E-002,6.710165E-002,6.710165E-002,6.710165E-002,6.710165E-002,6.710165E-002,6.710165E-002,6.710165E-002,6.710165E-002,6.710165E-002,
   **   ~~~   ** Supply-to-demand interface deck 1 mass flow rate check value iteration history trace: 6.710165E-002,6.710165E-002,6.710165E-002,6.710165E-002,6.710165E-002,6.710165E-002,6.710165E-002,6.710165E-002,6.710165E-002,6.710165E-002,
   **   ~~~   ** Air System Named = CENTRAL SYSTEM did not converge for energy
   **   ~~~   ** Check values should be zero. Most Recent values listed first.
   **   ~~~   ** Demand-to-Supply interface energy check value iteration history trace: 1329.760832,1329.760832,1329.760832,1329.760832,1329.760832,1329.760832,1329.760832,1329.760831,1329.760831,1329.760831,
   **   ~~~   ** Supply-to-demand interface deck 1 energy check value iteration history trace: 2204.575167,2204.575167,2204.575167,2204.575167,2204.575167,2204.575167,2204.575167,2204.575167,2204.575166,2204.575166,
   ** Warning ** SimHVAC: Maximum iterations (20) exceeded for all HVAC loops, at EXTREME_WINTER, 01/15 09:36 - 09:39
   **   ~~~   ** The solution for one or more of the Air Loop HVAC systems did not appear to converge
   **   ~~~   ** Air System Named = CENTRAL SYSTEM did not converge for mass flow rate
   **   ~~~   ** Check values should be zero. Most Recent values listed first.
   **   ~~~   ** Demand-to-Supply interface mass flow rate check value iteration history trace: 6.065880E-002,6.065880E-002,6.065880E-002,6.065880E-002,6.065880E-002,6.065880E-002,6.065880E-002,6.065880E-002,6.065880E-002,6.065880E-002,
   **   ~~~   ** Supply-to-demand interface deck 1 mass flow rate check value iteration history trace: 6.065880E-002,6.065880E-002,6.065880E-002,6.065880E-002,6.065880E-002,6.065880E-002,6.065880E-002,6.065880E-002,6.065880E-002,6.065880E-002,
   **   ~~~   ** Air System Named = CENTRAL SYSTEM did not converge for energy
   **   ~~~   ** Check values should be zero. Most Recent values listed first.
   **   ~~~   ** Demand-to-Supply interface energy check value iteration history trace: 1196.818224,1196.818224,1196.818224,1196.818223,1196.818223,1196.818223,1196.818223,1196.818223,1196.818223,1196.818223,
   **   ~~~   ** Supply-to-demand interface deck 1 energy check value iteration history trace: 1987.900043,1987.900043,1987.900043,1987.900043,1987.900043,1987.900043,1987.900042,1987.900042,1987.900042,1987.900042,
   ** Warning ** SimHVAC: Maximum iterations (20) exceeded for all HVAC loops, at EXTREME_WINTER, 01/16 08:50 - 08:55
   **   ~~~   ** The solution for one or more of the Air Loop HVAC systems did not appear to converge
   **   ~~~   ** Air System Named = CENTRAL SYSTEM did not converge for mass flow rate
   **   ~~~   ** Check values should be zero. Most Recent values listed first.
   **   ~~~   ** Demand-to-Supply interface mass flow rate check value iteration history trace: 6.507177E-002,6.507177E-002,6.507177E-002,6.507177E-002,6.507177E-002,6.507177E-002,6.507177E-002,6.507177E-002,6.507177E-002,6.507177E-002,
   **   ~~~   ** Supply-to-demand interface deck 1 mass flow rate check value iteration history trace: 6.507177E-002,6.507177E-002,6.507177E-002,6.507177E-002,6.507177E-002,6.507177E-002,6.507177E-002,6.507177E-002,6.507177E-002,6.507177E-002,
   **   ~~~   ** Air System Named = CENTRAL SYSTEM did not converge for energy
   **   ~~~   ** Check values should be zero. Most Recent values listed first.
   **   ~~~   ** Demand-to-Supply interface energy check value iteration history trace: 1289.442428,1289.442428,1289.442428,1289.442428,1289.442428,1289.442428,1289.442428,1289.442427,1289.442427,1289.442427,
   **   ~~~   ** Supply-to-demand interface deck 1 energy check value iteration history trace: 2137.435341,2137.435341,2137.435341,2137.435340,2137.435340,2137.435340,2137.435340,2137.435340,2137.435340,2137.435340,
   ** Warning ** SimHVAC: Maximum iterations (20) exceeded for all HVAC loops, at EXTREME_WINTER, 01/18 10:02 - 10:05
   **   ~~~   ** The solution for one or more of the Air Loop HVAC systems did not appear to converge
   **   ~~~   ** Air System Named = CENTRAL SYSTEM did not converge for mass flow rate
   **   ~~~   ** Check values should be zero. Most Recent values listed first.
   **   ~~~   ** Demand-to-Supply interface mass flow rate check value iteration history trace: 6.855883E-002,6.855883E-002,6.855883E-002,6.855883E-002,6.855883E-002,6.855883E-002,6.855883E-002,6.855883E-002,6.855883E-002,6.855883E-002,
   **   ~~~   ** Supply-to-demand interface deck 1 mass flow rate check value iteration history trace: 6.855883E-002,6.855883E-002,6.855883E-002,6.855883E-002,6.855883E-002,6.855883E-002,6.855883E-002,6.855883E-002,6.855883E-002,6.855883E-002,
   **   ~~~   ** Air System Named = CENTRAL SYSTEM did not converge for energy
   **   ~~~   ** Check values should be zero. Most Recent values listed first.
   **   ~~~   ** Demand-to-Supply interface energy check value iteration history trace: 1358.694283,1358.694283,1358.694283,1358.694282,1358.694282,1358.694282,1358.694282,1358.694282,1358.694282,1358.694282,
   **   ~~~   ** Supply-to-demand interface deck 1 energy check value iteration history trace: 2199.027079,2199.027079,2199.027079,2199.027078,2199.027078,2199.027078,2199.027078,2199.027078,2199.027078,2199.027078,
   ** Warning ** SimHVAC: Maximum iterations (20) exceeded for all HVAC loops, at ANNUAL, 01/01 09:15 - 09:30
   **   ~~~   ** The solution for one or more of the Air Loop HVAC systems did not appear to converge
   **   ~~~   ** Air System Named = CENTRAL SYSTEM did not converge for mass flow rate
   **   ~~~   ** Check values should be zero. Most Recent values listed first.
   **   ~~~   ** Demand-to-Supply interface mass flow rate check value iteration history trace: 8.136032E-002,8.136032E-002,8.136032E-002,8.136032E-002,8.136032E-002,8.136032E-002,8.136032E-002,8.136032E-002,8.136032E-002,8.136032E-002,
   **   ~~~   ** Supply-to-demand interface deck 1 mass flow rate check value iteration history trace: 8.136032E-002,8.136032E-002,8.136032E-002,8.136032E-002,8.136032E-002,8.136032E-002,8.136032E-002,8.136032E-002,8.136032E-002,8.136032E-002,
   **   ~~~   ** Air System Named = CENTRAL SYSTEM did not converge for energy
   **   ~~~   ** Check values should be zero. Most Recent values listed first.
   **   ~~~   ** Demand-to-Supply interface energy check value iteration history trace: 1612.108791,1612.108791,1612.108791,1612.108791,1612.108791,1612.108791,1612.108791,1612.108791,1612.108791,1612.108791,
   **   ~~~   ** Supply-to-demand interface deck 1 energy check value iteration history trace: 2597.328167,2597.328167,2597.328167,2597.328167,2597.328166,2597.328166,2597.328166,2597.328166,2597.328166,2597.328166,
   ** Warning ** SimHVAC: Maximum iterations (20) exceeded for all HVAC loops, at ANNUAL, 01/13 09:30 - 09:45
   **   ~~~   ** The solution for one or more of the Air Loop HVAC systems did not appear to converge
   **   ~~~   ** Air System Named = CENTRAL SYSTEM did not converge for mass flow rate
   **   ~~~   ** Check values should be zero. Most Recent values listed first.
   **   ~~~   ** Demand-to-Supply interface mass flow rate check value iteration history trace: 5.767614E-002,5.767614E-002,5.767614E-002,5.767614E-002,5.767614E-002,5.767614E-002,5.767614E-002,5.767614E-002,5.767614E-002,5.767614E-002,
   **   ~~~   ** Supply-to-demand interface deck 1 mass flow rate check value iteration history trace: 5.767614E-002,5.767614E-002,5.767614E-002,5.767614E-002,5.767614E-002,5.767614E-002,5.767614E-002,5.767614E-002,5.767614E-002,5.767614E-002,
   **   ~~~   ** Air System Named = CENTRAL SYSTEM did not converge for energy
   **   ~~~   ** Check values should be zero. Most Recent values listed first.
   **   ~~~   ** Demand-to-Supply interface energy check value iteration history trace: 1136.773284,1136.773284,1136.773284,1136.773284,1136.773284,1136.773284,1136.773284,1136.773284,1136.773284,1136.773283,
   **   ~~~   ** Supply-to-demand interface deck 1 energy check value iteration history trace: 2020.471494,2020.471494,2020.471494,2020.471494,2020.471494,2020.471493,2020.471493,2020.471493,2020.471493,2020.471493,
   ** Warning ** SimHVAC: Maximum iterations (20) exceeded for all HVAC loops, at ANNUAL, 01/13 10:23 - 10:30
   **   ~~~   ** The solution for one or more of the Air Loop HVAC systems did not appear to converge
   **   ~~~   ** Air System Named = CENTRAL SYSTEM did not converge for mass flow rate
   **   ~~~   ** Check values should be zero. Most Recent values listed first.
   **   ~~~   ** Demand-to-Supply interface mass flow rate check value iteration history trace: 5.057327E-002,5.057327E-002,5.057327E-002,5.057327E-002,5.057327E-002,5.057327E-002,5.057327E-002,5.057327E-002,5.057327E-002,5.057327E-002,
   **   ~~~   ** Supply-to-demand interface deck 1 mass flow rate check value iteration history trace: 5.057327E-002,5.057327E-002,5.057327E-002,5.057327E-002,5.057327E-002,5.057327E-002,5.057327E-002,5.057327E-002,5.057327E-002,5.057327E-002,
   **   ~~~   ** Air System Named = CENTRAL SYSTEM did not converge for energy
   **   ~~~   ** Check values should be zero. Most Recent values listed first.
   **   ~~~   ** Demand-to-Supply interface energy check value iteration history trace: 1001.979540,1001.979540,1001.979540,1001.979540,1001.979540,1001.979540,1001.979540,1001.979540,1001.979540,1001.979540,
   **   ~~~   ** Supply-to-demand interface deck 1 energy check value iteration history trace: 1800.838155,1800.838155,1800.838155,1800.838155,1800.838155,1800.838155,1800.838155,1800.838155,1800.838155,1800.838155,
   ** Warning ** SimHVAC: Maximum iterations (20) exceeded for all HVAC loops, at ANNUAL, 01/22 10:00 - 10:15
   **   ~~~   ** The solution for one or more of the Air Loop HVAC systems did not appear to converge
   **   ~~~   ** Air System Named = CENTRAL SYSTEM did not converge for mass flow rate
   **   ~~~   ** Check values should be zero. Most Recent values listed first.
   **   ~~~   ** Demand-to-Supply interface mass flow rate check value iteration history trace: 6.663363E-002,6.663363E-002,6.663363E-002,6.663363E-002,6.663363E-002,6.663363E-002,6.663363E-002,6.663363E-002,6.663363E-002,6.663363E-002,
   **   ~~~   ** Supply-to-demand interface deck 1 mass flow rate check value iteration history trace: 6.663363E-002,6.663363E-002,6.663363E-002,6.663363E-002,6.663363E-002,6.663363E-002,6.663363E-002,6.663363E-002,6.663363E-002,6.663363E-002,
   **   ~~~   ** Air System Named = CENTRAL SYSTEM did not converge for energy
   **   ~~~   ** Check values should be zero. Most Recent values listed first.
   **   ~~~   ** Demand-to-Supply interface energy check value iteration history trace: 1320.485530,1320.485530,1320.485530,1320.485530,1320.485530,1320.485530,1320.485530,1320.485530,1320.485530,1320.485530,
   **   ~~~   ** Supply-to-demand interface deck 1 energy check value iteration history trace: 2418.177358,2418.177358,2418.177358,2418.177358,2418.177358,2418.177358,2418.177358,2418.177358,2418.177358,2418.177358,
   ** Warning ** SimHVAC: Maximum iterations (20) exceeded for all HVAC loops, at ANNUAL, 02/06 08:15 - 08:30
   **   ~~~   ** The solution for one or more of the Air Loop HVAC systems did not appear to converge
   **   ~~~   ** Air System Named = CENTRAL SYSTEM did not converge for mass flow rate
   **   ~~~   ** Check values should be zero. Most Recent values listed first.
   **   ~~~   ** Demand-to-Supply interface mass flow rate check value iteration history trace: 8.315578E-002,8.315578E-002,8.315578E-002,8.315578E-002,8.315578E-002,8.315578E-002,8.315578E-002,8.315578E-002,8.315578E-002,8.315578E-002,
   **   ~~~   ** Supply-to-demand interface deck 1 mass flow rate check value iteration history trace: 8.315578E-002,8.315578E-002,8.315578E-002,8.315578E-002,8.315578E-002,8.315578E-002,8.315578E-002,8.315578E-002,8.315578E-002,8.315578E-002,
   **   ~~~   ** Air System Named = CENTRAL SYSTEM did not converge for energy
   **   ~~~   ** Check values should be zero. Most Recent values listed first.
   **   ~~~   ** Demand-to-Supply interface energy check value iteration history trace: 1647.636846,1647.636845,1647.636845,1647.636845,1647.636845,1647.636845,1647.636845,1647.636845,1647.636845,1647.636845,
   **   ~~~   ** Supply-to-demand interface deck 1 energy check value iteration history trace: 2659.896630,2659.896630,2659.896629,2659.896629,2659.896629,2659.896629,2659.896629,2659.896629,2659.896629,2659.896629,
   ** Warning ** SimHVAC: Maximum iterations (20) exceeded for all HVAC loops, at ANNUAL, 02/21 08:53 - 08:54
   **   ~~~   ** The solution for one or more of the Air Loop HVAC systems did not appear to converge
   **   ~~~   ** Air System Named = CENTRAL SYSTEM did not converge for mass flow rate
   **   ~~~   ** Check values should be zero. Most Recent values listed first.
   **   ~~~   ** Demand-to-Supply interface mass flow rate check value iteration history trace: 5.479211E-002,5.479211E-002,5.479211E-002,5.479211E-002,5.479211E-002,5.479211E-002,5.479211E-002,5.479211E-002,5.479211E-002,5.479211E-002,
   **   ~~~   ** Supply-to-demand interface deck 1 mass flow rate check value iteration history trace: 5.479211E-002,5.479211E-002,5.479211E-002,5.479211E-002,5.479211E-002,5.479211E-002,5.479211E-002,5.479211E-002,5.479211E-002,5.479211E-002,
   **   ~~~   ** Air System Named = CENTRAL SYSTEM did not converge for energy
   **   ~~~   ** Check values should be zero. Most Recent values listed first.
   **   ~~~   ** Demand-to-Supply interface energy check value iteration history trace: 1081.852101,1081.852101,1081.852101,1081.852101,1081.852101,1081.852101,1081.852101,1081.852101,1081.852101,1081.852101,
   **   ~~~   ** Supply-to-demand interface deck 1 energy check value iteration history trace: 1933.815191,1933.815191,1933.815191,1933.815191,1933.815191,1933.815191,1933.815191,1933.815191,1933.815191,1933.815191,
   ** Warning ** SimHVAC: Maximum iterations (20) exceeded for all HVAC loops, at ANNUAL, 02/23 08:41 - 08:43
   **   ~~~   ** The solution for one or more of the Air Loop HVAC systems did not appear to converge
   **   ~~~   ** Air System Named = CENTRAL SYSTEM did not converge for mass flow rate
   **   ~~~   ** Check values should be zero. Most Recent values listed first.
   **   ~~~   ** Demand-to-Supply interface mass flow rate check value iteration history trace: 5.313541E-002,5.313541E-002,5.313541E-002,5.313541E-002,5.313541E-002,5.313541E-002,5.313541E-002,5.313541E-002,5.313541E-002,5.313541E-002,
   **   ~~~   ** Supply-to-demand interface deck 1 mass flow rate check value iteration history trace: 5.313541E-002,5.313541E-002,5.313541E-002,5.313541E-002,5.313541E-002,5.313541E-002,5.313541E-002,5.313541E-002,5.313541E-002,5.313541E-002,
   **   ~~~   ** Air System Named = CENTRAL SYSTEM did not converge for energy
   **   ~~~   ** Check values should be zero. Most Recent values listed first.
   **   ~~~   ** Demand-to-Supply interface energy check value iteration history trace: 1047.176622,1047.176622,1047.176622,1047.176622,1047.176622,1047.176622,1047.176622,1047.176622,1047.176622,1047.176621,
   **   ~~~   ** Supply-to-demand interface deck 1 energy check value iteration history trace: 1936.248339,1936.248339,1936.248339,1936.248338,1936.248338,1936.248338,1936.248338,1936.248338,1936.248338,1936.248338,
   ** Warning ** SimHVAC: Maximum iterations (20) exceeded for all HVAC loops, at ANNUAL, 03/11 09:27 - 09:30
   **   ~~~   ** The solution for one or more of the Air Loop HVAC systems did not appear to converge
   **   ~~~   ** Air System Named = CENTRAL SYSTEM did not converge for mass flow rate
   **   ~~~   ** Check values should be zero. Most Recent values listed first.
   **   ~~~   ** Demand-to-Supply interface mass flow rate check value iteration history trace: 5.288104E-002,5.288104E-002,5.288104E-002,5.288104E-002,5.288104E-002,5.288104E-002,5.288104E-002,5.288104E-002,5.288104E-002,5.288104E-002,
   **   ~~~   ** Supply-to-demand interface deck 1 mass flow rate check value iteration history trace: 5.288104E-002,5.288104E-002,5.288104E-002,5.288104E-002,5.288104E-002,5.288104E-002,5.288104E-002,5.288104E-002,5.288104E-002,5.288104E-002,
   **   ~~~   ** Air System Named = CENTRAL SYSTEM did not converge for energy
   **   ~~~   ** Check values should be zero. Most Recent values listed first.
   **   ~~~   ** Demand-to-Supply interface energy check value iteration history trace: 1043.970760,1043.970760,1043.970760,1043.970760,1043.970760,1043.970760,1043.970760,1043.970760,1043.970760,1043.970760,
   **   ~~~   ** Supply-to-demand interface deck 1 energy check value iteration history trace: 1992.906552,1992.906552,1992.906552,1992.906552,1992.906552,1992.906552,1992.906551,1992.906551,1992.906551,1992.906551,
   ** Warning ** SimHVAC: Maximum iterations (20) exceeded for all HVAC loops, at ANNUAL, 04/18 09:00 - 09:15
   **   ~~~   ** The solution for one or more of the Air Loop HVAC systems did not appear to converge
   **   ~~~   ** Air System Named = CENTRAL SYSTEM did not converge for mass flow rate
   **   ~~~   ** Check values should be zero. Most Recent values listed first.
   **   ~~~   ** Demand-to-Supply interface mass flow rate check value iteration history trace: 8.120087E-002,8.120087E-002,8.120087E-002,8.120087E-002,8.120087E-002,8.120087E-002,8.120087E-002,8.120087E-002,8.120087E-002,8.120087E-002,
   **   ~~~   ** Supply-to-demand interface deck 1 mass flow rate check value iteration history trace: 8.120087E-002,8.120087E-002,8.120087E-002,8.120087E-002,8.120087E-002,8.120087E-002,8.120087E-002,8.120087E-002,8.120087E-002,8.120087E-002,
   **   ~~~   ** Air System Named = CENTRAL SYSTEM did not converge for energy
   **   ~~~   ** Check values should be zero. Most Recent values listed first.
   **   ~~~   ** Demand-to-Supply interface energy check value iteration history trace: 1931.100201,1931.100201,1931.100201,1931.100202,1931.100202,1931.100202,1931.100202,1931.100202,1931.100202,1931.100202,
   **   ~~~   ** Supply-to-demand interface deck 1 energy check value iteration history trace: 715.257761,715.257762,715.257762,715.257762,715.257762,715.257762,715.257762,715.257762,715.257762,715.257762,
   ************* Simulation Error Summary *************
   ** Warning ** The following Report Variables were requested but not generated -- check.rdd file
   **   ~~~   ** Either the IDF did not contain these elements, the variable name is misspelled,
   **   ~~~   ** or the requested variable is an advanced output which requires Output : Diagnostics, DisplayAdvancedReportVariables;
   ************* Key=*, VarName=BASEBOARD TOTAL HEATING ENERGY, Frequency=
   ************* Key=*, VarName=WATER HEATER NATURALGAS ENERGY, Frequency=
   ************* Key=*, VarName=COOLING COIL TOTAL HEATING ENERGY, Frequency=
   ************* There are 34 unused schedules in input.
   ************* There are 388 unused week schedules in input.
   ************* There are 396 unused day schedules in input.
   ************* Use Output:Diagnostics,DisplayUnusedSchedules; to see them.
   *************
   ************* ===== Recurring Error Summary =====
   ************* The following recurring error messages occurred.
   *************
   *************  ** Warning ** "TOTAL HOT WATER LOAD" - Target water temperature should be less than or equal to the hot water temperature error continues...
   *************  **   ~~~   **   This error occurred 161455 total times;
   *************  **   ~~~   **   during Warmup 0 times;
   *************  **   ~~~   **   during Sizing 0 times.
   *************  **   ~~~   **   Max=11.759956  Min=1.210126E-004
   *************
   *************  ** Warning ** SimHVAC: Exceeding Maximum iterations for all HVAC loops, during ANNUAL continues
   *************  **   ~~~   **   This error occurred 9 total times;
   *************  **   ~~~   **   during Warmup 0 times;
   *************  **   ~~~   **   during Sizing 0 times.
   *************
   *************
   ************* ===== Final Error Summary =====
   ************* The following error categories occurred.  Consider correcting or noting.
   ************* Nominally Unused Constructions
   ************* ..The nominally unused constructions warning is provided to alert you to potential conditions that can cause
   ************* ..extra time during simulation. Each construction is calculated by the algorithm indicated in the HeatBalanceAlgorithm
   ************* ..object. You may remove the constructions indicated (when you use the DisplayExtraWarnings option).
   *************
   ************* EnergyPlus Warmup Error Summary. During Warmup: 1 Warning; 0 Severe Errors.
   ************* EnergyPlus Sizing Error Summary. During Sizing: 4 Warning; 0 Severe Errors.
   ************* EnergyPlus Completed Successfully-- 161496 Warning; 0 Severe Errors; Elapsed Time=00hr 01min 54.00sec
