Program Version,EnergyPlus, Version 22.2.0-c249759bad, YMD=2023.09.01 19:56,
   ************* Beginning Zone Sizing Calculations
   ** Warning ** ProcessScheduleInput: Schedule:Constant="ALWAYS ON DISCRETE", Schedule Type Limits Name="ONOFF" not found -- will not be validated
   ** Warning ** Foundation:Kiva="KIVA FOUNDATION", no Interior Horizontal Insulation Material Name defined
   **   ~~~   ** Interior Horizontal Insulation Depth will not be used.
   ** Warning ** CheckUsedConstructions: There are 15 nominally unused constructions in input.
   **   ~~~   ** Each Unused construction is shown.
   ************* Construction=INTERIOR FLOOR
   ************* Construction=INTERIOR WINDOW
   ************* Construction=EXTERIOR DOOR
   ************* Construction=INTERIOR DOOR
   ************* Construction=GABLE CONSTRUCTION
   ************* Construction=CRAWL_FLOOR
   ************* Construction=INSULATED PIPE
   ************* Construction=PLAIN PIPE
   ************* Construction=TDD PIPE
   ************* Construction=TDD DOME
   ************* Construction=TDD DIFFUSER
   ************* Construction=CRAWL WALL
   ************* Construction=CEILING-FLOOR-LAYER
   ************* Construction=SLAB CONSTRUCTION W FULL R10 INSULATION
   ************* Construction=SLAB CONSTRUCTION W FULL R5 INSULATION
   ** Warning ** GetDXCoils: Coil:Heating:DX:SingleSpeed="DX_HEATING_COIL" curve values
   **   ~~~   ** ... Defrost Energy Input Ratio Function of Temperature Curve Name = DEFROSTEIR output is not equal to 1.0 (+ or - 10%) at rated conditions.
   **   ~~~   ** ... Curve output at rated conditions = 0.152
   ************* Beginning System Sizing Calculations
   ************* Beginning Plant Sizing Calculations
   ** Warning ** SizeDXCoil Coil:Cooling:DX:SingleSpeed DX_COOLING_COIL
   **   ~~~   ** ...Gross Rated Total Cooling Capacity [W] will be limited by the maximum rated volume flow per rated total capacity ratio.
   **   ~~~   ** ...DX coil volume flow rate ( m3/s ) = 0.521250
   **   ~~~   ** ...Requested capacity ( W ) = 6882.906
   **   ~~~   ** ...Requested flow/capacity ratio ( m3/s/W ) = 7.573E-005
   **   ~~~   ** ...Maximum flow/capacity ratio ( m3/s/W ) = 6.041E-005
   **   ~~~   ** ...Adjusted capacity ( W ) = 8628.551
   ** Warning ** SizeDXCoil Coil:Heating:DX:SingleSpeed DX_HEATING_COIL
   **   ~~~   ** ...Gross Rated Heating Capacity [W] will be limited by the maximum rated volume flow per rated total capacity ratio.
   **   ~~~   ** ...DX coil volume flow rate ( m3/s ) = 0.521250
   **   ~~~   ** ...Requested capacity ( W ) = 8628.551
   **   ~~~   ** ...Requested flow/capacity ratio ( m3/s/W ) = 6.041E-005
   **   ~~~   ** ...Maximum flow/capacity ratio ( m3/s/W ) = 6.041E-005
   **   ~~~   ** ...Adjusted capacity ( W ) = 8628.551
   ** Warning ** Coil:WaterHeating:AirToWaterHeatPump:Wrapped "HEAT PUMP WATER HEATER EVAPORATOR": Rated air volume flow rate per watt of rated total water heating capacity is out of range
   **   ~~~   ** Min Rated Vol Flow Per Watt=[4.027E-005], Rated Vol Flow Per Watt=[1.510E-004], Max Rated Vol Flow Per Watt=[8.056E-005]. See Input-Output Reference Manual for valid range.
   ************* SizeFan: : Potential issue with equipment sizing for Fan:OnOff HEAT PUMP WATER HEATER FAN
   **   ~~~   ** User-Specified Maximum Flow Rate [m3/s] = 0.22653
   **   ~~~   ** differs from Design Size Maximum Flow Rate [m3/s] = 7.55250E-002
   **   ~~~   ** This may, or may not, indicate mismatched component sizes.
   **   ~~~   ** Verify that the value entered is intended and is consistent with other components.
   ** Warning ** Water heater = WATER HEATER TANK:  Recovery Efficiency and Energy Factor could not be calculated during the test for standard ratings
   **   ~~~   ** Setpoint was never recovered and/or heater never turned on
   ** Warning ** Check input. Pump nominal power or motor efficiency is set to 0, for pump=MAINS PRESSURE
   ** Warning ** Output:Meter: invalid Key Name="ELECTRIC_RANGE:INTERIOREQUIPMENT:ELECTRICITY" - not found.
   ** Warning ** Output:Meter: invalid Key Name="ELECTRIC_DRYER:INTERIOREQUIPMENT:ELECTRICITY" - not found.
   ** Warning ** Output:Meter: invalid Key Name="HEATRECOVERY:ELECTRICITY" - not found.
   ** Warning ** Output:Meter: invalid Key Name="HEATING:NATURALGAS" - not found.
   ** Warning ** Output:Meter: invalid Key Name="WATERSYSTEMS:NATURALGAS" - not found.
   ** Warning ** Output:Meter: invalid Key Name="PROPANE:FACILITY" - not found.
   ** Warning ** Output:Meter: invalid Key Name="HEATING:PROPANE" - not found.
   ************* Testing Individual Branch Integrity
   ************* All Branches passed integrity testing
   ************* Testing Individual Supply Air Path Integrity
   ************* All Supply Air Paths passed integrity testing
   ************* Testing Individual Return Air Path Integrity
   ************* All Return Air Paths passed integrity testing
   ************* No node connection errors were found.
   ************* Beginning Simulation
   ** Warning ** AirflowNetwork::Solver::validate_distribution: Heat pump water heater is simulated along with an AirflowNetwork but is not included in the AirflowNetwork.
   ** Warning ** CalcEquipmentFlowRates: "TOTAL HOT WATER LOAD" - Target water temperature is greater than the hot water temperature by (4.57 C)
   **   ~~~   **  Environment=EXTREME_WINTER, at Simulation time=01/06 07:00 - 07:15
   **   ~~~   ** ...target water temperature     = 53.33 C
   **   ~~~   ** ...hot water temperature        = 48.76 C
   **   ~~~   ** ...Target water temperature should be less than or equal to the hot water temperature. Verify temperature setpoints and schedules.
   ** Warning ** SimHVAC: Maximum iterations (20) exceeded for all HVAC loops, at EXTREME_WINTER, 01/11 11:45 - 11:52
   **   ~~~   ** The solution for one or more of the Air Loop HVAC systems did not appear to converge
   **   ~~~   ** Air System Named = CENTRAL SYSTEM did not converge for mass flow rate
   **   ~~~   ** Check values should be zero. Most Recent values listed first.
   **   ~~~   ** Demand-to-Supply interface mass flow rate check value iteration history trace: 6.381035E-002,6.381035E-002,6.381035E-002,6.381035E-002,6.381035E-002,6.381035E-002,6.381035E-002,6.381035E-002,6.381035E-002,6.381035E-002,
   **   ~~~   ** Supply-to-demand interface deck 1 mass flow rate check value iteration history trace: 6.381035E-002,6.381035E-002,6.381035E-002,6.381035E-002,6.381035E-002,6.381035E-002,6.381035E-002,6.381035E-002,6.381035E-002,6.381035E-002,
   **   ~~~   ** Air System Named = CENTRAL SYSTEM did not converge for energy
   **   ~~~   ** Check values should be zero. Most Recent values listed first.
   **   ~~~   ** Demand-to-Supply interface energy check value iteration history trace: 1251.419088,1251.419088,1251.419088,1251.419088,1251.419088,1251.419088,1251.419087,1251.419087,1251.419087,1251.419087,
   **   ~~~   ** Supply-to-demand interface deck 1 energy check value iteration history trace: 2072.945410,2072.945410,2072.945410,2072.945410,2072.945410,2072.945410,2072.945410,2072.945409,2072.945409,2072.945409,
   ** Warning ** SimHVAC: Maximum iterations (20) exceeded for all HVAC loops, at EXTREME_WINTER, 01/11 22:25 - 22:30
   **   ~~~   ** The solution for one or more of the Air Loop HVAC systems did not appear to converge
   **   ~~~   ** Air System Named = CENTRAL SYSTEM did not converge for mass flow rate
   **   ~~~   ** Check values should be zero. Most Recent values listed first.
   **   ~~~   ** Demand-to-Supply interface mass flow rate check value iteration history trace: 8.798941E-002,8.798941E-002,8.798941E-002,8.798941E-002,8.798941E-002,8.798941E-002,8.798941E-002,8.798941E-002,8.798941E-002,8.798941E-002,
   **   ~~~   ** Supply-to-demand interface deck 1 mass flow rate check value iteration history trace: 8.798941E-002,8.798941E-002,8.798941E-002,8.798941E-002,8.798941E-002,8.798941E-002,8.798941E-002,8.798941E-002,8.798941E-002,8.798941E-002,
   **   ~~~   ** Air System Named = CENTRAL SYSTEM did not converge for energy
   **   ~~~   ** Check values should be zero. Most Recent values listed first.
   **   ~~~   ** Demand-to-Supply interface energy check value iteration history trace: 1641.106479,1641.106479,1641.106479,1641.106479,1641.106479,1641.106479,1641.106479,1641.106479,1641.106479,1641.106479,
   **   ~~~   ** Supply-to-demand interface deck 1 energy check value iteration history trace: 2566.808556,2566.808556,2566.808556,2566.808555,2566.808555,2566.808555,2566.808555,2566.808555,2566.808555,2566.808554,
   ** Warning ** SimHVAC: Maximum iterations (20) exceeded for all HVAC loops, at ANNUAL, 01/03 10:45 - 10:47
   **   ~~~   ** The solution for one or more of the Air Loop HVAC systems did not appear to converge
   **   ~~~   ** Air System Named = CENTRAL SYSTEM did not converge for mass flow rate
   **   ~~~   ** Check values should be zero. Most Recent values listed first.
   **   ~~~   ** Demand-to-Supply interface mass flow rate check value iteration history trace: 6.522123E-002,6.522123E-002,6.522123E-002,6.522123E-002,6.522123E-002,6.522123E-002,6.522123E-002,6.522123E-002,6.522123E-002,6.522123E-002,
   **   ~~~   ** Supply-to-demand interface deck 1 mass flow rate check value iteration history trace: 6.522123E-002,6.522123E-002,6.522123E-002,6.522123E-002,6.522123E-002,6.522123E-002,6.522123E-002,6.522123E-002,6.522123E-002,6.522123E-002,
   **   ~~~   ** Air System Named = CENTRAL SYSTEM did not converge for energy
   **   ~~~   ** Check values should be zero. Most Recent values listed first.
   **   ~~~   ** Demand-to-Supply interface energy check value iteration history trace: 1290.156129,1290.156129,1290.156129,1290.156129,1290.156129,1290.156129,1290.156129,1290.156129,1290.156129,1290.156129,
   **   ~~~   ** Supply-to-demand interface deck 1 energy check value iteration history trace: 2346.516984,2346.516984,2346.516984,2346.516983,2346.516983,2346.516983,2346.516983,2346.516983,2346.516983,2346.516983,
   ** Warning ** SimHVAC: Maximum iterations (20) exceeded for all HVAC loops, at ANNUAL, 01/10 19:00 - 19:08
   **   ~~~   ** The solution for one or more of the Air Loop HVAC systems did not appear to converge
   **   ~~~   ** Air System Named = CENTRAL SYSTEM did not converge for mass flow rate
   **   ~~~   ** Check values should be zero. Most Recent values listed first.
   **   ~~~   ** Demand-to-Supply interface mass flow rate check value iteration history trace: 8.626585E-002,8.626585E-002,8.626585E-002,8.626585E-002,8.626585E-002,8.626585E-002,8.626585E-002,8.626585E-002,8.626585E-002,8.626585E-002,
   **   ~~~   ** Supply-to-demand interface deck 1 mass flow rate check value iteration history trace: 8.626585E-002,8.626585E-002,8.626585E-002,8.626585E-002,8.626585E-002,8.626585E-002,8.626585E-002,8.626585E-002,8.626585E-002,8.626585E-002,
   **   ~~~   ** Air System Named = CENTRAL SYSTEM did not converge for energy
   **   ~~~   ** Check values should be zero. Most Recent values listed first.
   **   ~~~   ** Demand-to-Supply interface energy check value iteration history trace: 1697.318033,1697.318033,1697.318033,1697.318033,1697.318033,1697.318033,1697.318033,1697.318033,1697.318032,1697.318032,
   **   ~~~   ** Supply-to-demand interface deck 1 energy check value iteration history trace: 2697.569196,2697.569196,2697.569196,2697.569196,2697.569196,2697.569196,2697.569195,2697.569195,2697.569195,2697.569195,
   ** Warning ** SimHVAC: Maximum iterations (20) exceeded for all HVAC loops, at ANNUAL, 01/11 10:15 - 10:17
   **   ~~~   ** The solution for one or more of the Air Loop HVAC systems did not appear to converge
   **   ~~~   ** Air System Named = CENTRAL SYSTEM did not converge for mass flow rate
   **   ~~~   ** Check values should be zero. Most Recent values listed first.
   **   ~~~   ** Demand-to-Supply interface mass flow rate check value iteration history trace: 9.189772E-002,9.189772E-002,9.189772E-002,9.189772E-002,9.189772E-002,9.189772E-002,9.189772E-002,9.189772E-002,9.189772E-002,9.189772E-002,
   **   ~~~   ** Supply-to-demand interface deck 1 mass flow rate check value iteration history trace: 9.189772E-002,9.189772E-002,9.189772E-002,9.189772E-002,9.189772E-002,9.189772E-002,9.189772E-002,9.189772E-002,9.189772E-002,9.189772E-002,
   **   ~~~   ** Air System Named = CENTRAL SYSTEM did not converge for energy
   **   ~~~   ** Check values should be zero. Most Recent values listed first.
   **   ~~~   ** Demand-to-Supply interface energy check value iteration history trace: 1821.088342,1821.088342,1821.088342,1821.088342,1821.088342,1821.088342,1821.088342,1821.088341,1821.088341,1821.088341,
   **   ~~~   ** Supply-to-demand interface deck 1 energy check value iteration history trace: 2857.371529,2857.371529,2857.371528,2857.371528,2857.371528,2857.371528,2857.371528,2857.371527,2857.371527,2857.371527,
   ** Warning ** SimHVAC: Maximum iterations (20) exceeded for all HVAC loops, at ANNUAL, 01/11 11:38 - 11:45
   **   ~~~   ** The solution for one or more of the Air Loop HVAC systems did not appear to converge
   **   ~~~   ** Air System Named = CENTRAL SYSTEM did not converge for mass flow rate
   **   ~~~   ** Check values should be zero. Most Recent values listed first.
   **   ~~~   ** Demand-to-Supply interface mass flow rate check value iteration history trace: 7.117711E-002,7.117711E-002,7.117711E-002,7.117711E-002,7.117711E-002,7.117711E-002,7.117711E-002,7.117711E-002,7.117711E-002,7.117711E-002,
   **   ~~~   ** Supply-to-demand interface deck 1 mass flow rate check value iteration history trace: 7.117711E-002,7.117711E-002,7.117711E-002,7.117711E-002,7.117711E-002,7.117711E-002,7.117711E-002,7.117711E-002,7.117711E-002,7.117711E-002,
   **   ~~~   ** Air System Named = CENTRAL SYSTEM did not converge for energy
   **   ~~~   ** Check values should be zero. Most Recent values listed first.
   **   ~~~   ** Demand-to-Supply interface energy check value iteration history trace: 1396.885248,1396.885248,1396.885247,1396.885247,1396.885247,1396.885247,1396.885247,1396.885247,1396.885247,1396.885247,
   **   ~~~   ** Supply-to-demand interface deck 1 energy check value iteration history trace: 2289.518329,2289.518329,2289.518329,2289.518329,2289.518328,2289.518328,2289.518328,2289.518328,2289.518328,2289.518328,
   ** Warning ** SimHVAC: Maximum iterations (20) exceeded for all HVAC loops, at ANNUAL, 01/16 10:00 - 10:15
   **   ~~~   ** The solution for one or more of the Air Loop HVAC systems did not appear to converge
   **   ~~~   ** Air System Named = CENTRAL SYSTEM did not converge for mass flow rate
   **   ~~~   ** Check values should be zero. Most Recent values listed first.
   **   ~~~   ** Demand-to-Supply interface mass flow rate check value iteration history trace: 8.744316E-002,8.744316E-002,8.744316E-002,8.744316E-002,8.744316E-002,8.744316E-002,8.744316E-002,8.744316E-002,8.744316E-002,8.744316E-002,
   **   ~~~   ** Supply-to-demand interface deck 1 mass flow rate check value iteration history trace: 8.744316E-002,8.744316E-002,8.744316E-002,8.744316E-002,8.744316E-002,8.744316E-002,8.744316E-002,8.744316E-002,8.744316E-002,8.744316E-002,
   **   ~~~   ** Air System Named = CENTRAL SYSTEM did not converge for energy
   **   ~~~   ** Check values should be zero. Most Recent values listed first.
   **   ~~~   ** Demand-to-Supply interface energy check value iteration history trace: 1732.814282,1732.814282,1732.814282,1732.814282,1732.814282,1732.814282,1732.814282,1732.814282,1732.814282,1732.814281,
   **   ~~~   ** Supply-to-demand interface deck 1 energy check value iteration history trace: 2754.505987,2754.505987,2754.505987,2754.505987,2754.505986,2754.505986,2754.505986,2754.505986,2754.505986,2754.505986,
   ** Warning ** SimHVAC: Maximum iterations (20) exceeded for all HVAC loops, at ANNUAL, 01/22 10:52 - 10:53
   **   ~~~   ** The solution for one or more of the Air Loop HVAC systems did not appear to converge
   **   ~~~   ** Air System Named = CENTRAL SYSTEM did not converge for mass flow rate
   **   ~~~   ** Check values should be zero. Most Recent values listed first.
   **   ~~~   ** Demand-to-Supply interface mass flow rate check value iteration history trace: 6.270927E-002,6.270927E-002,6.270927E-002,6.270927E-002,6.270927E-002,6.270927E-002,6.270927E-002,6.270927E-002,6.270927E-002,6.270927E-002,
   **   ~~~   ** Supply-to-demand interface deck 1 mass flow rate check value iteration history trace: 6.270927E-002,6.270927E-002,6.270927E-002,6.270927E-002,6.270927E-002,6.270927E-002,6.270927E-002,6.270927E-002,6.270927E-002,6.270927E-002,
   **   ~~~   ** Air System Named = CENTRAL SYSTEM did not converge for energy
   **   ~~~   ** Check values should be zero. Most Recent values listed first.
   **   ~~~   ** Demand-to-Supply interface energy check value iteration history trace: 1239.734635,1239.734635,1239.734635,1239.734634,1239.734634,1239.734634,1239.734634,1239.734634,1239.734634,1239.734634,
   **   ~~~   ** Supply-to-demand interface deck 1 energy check value iteration history trace: 2269.014802,2269.014802,2269.014802,2269.014802,2269.014802,2269.014802,2269.014802,2269.014802,2269.014802,2269.014801,
   ** Warning ** Temperature out of range [-100. to 200.] (PsyPsatFnTemp)
   **   ~~~   **  Routine=PsyTwbFnTdbWPb, Environment=ANNUAL, at Simulation time=02/12 05:45 - 05:50
   **   ~~~   **  Input Temperature=-232.28
   ** Warning ** SimHVAC: Maximum iterations (20) exceeded for all HVAC loops, at ANNUAL, 02/13 17:38 - 17:45
   **   ~~~   ** The solution for one or more of the Air Loop HVAC systems did not appear to converge
   **   ~~~   ** Air System Named = CENTRAL SYSTEM did not converge for mass flow rate
   **   ~~~   ** Check values should be zero. Most Recent values listed first.
   **   ~~~   ** Demand-to-Supply interface mass flow rate check value iteration history trace: 5.523330E-002,5.523330E-002,5.523330E-002,5.523330E-002,5.523330E-002,5.523330E-002,5.523330E-002,5.523330E-002,5.523330E-002,5.523330E-002,
   **   ~~~   ** Supply-to-demand interface deck 1 mass flow rate check value iteration history trace: 5.523330E-002,5.523330E-002,5.523330E-002,5.523330E-002,5.523330E-002,5.523330E-002,5.523330E-002,5.523330E-002,5.523330E-002,5.523330E-002,
   **   ~~~   ** Air System Named = CENTRAL SYSTEM did not converge for energy
   **   ~~~   ** Check values should be zero. Most Recent values listed first.
   **   ~~~   ** Demand-to-Supply interface energy check value iteration history trace: 1077.527211,1077.527211,1077.527211,1077.527211,1077.527211,1077.527211,1077.527211,1077.527210,1077.527210,1077.527210,
   **   ~~~   ** Supply-to-demand interface deck 1 energy check value iteration history trace: 1965.575459,1965.575459,1965.575459,1965.575459,1965.575458,1965.575458,1965.575458,1965.575458,1965.575458,1965.575458,
   ** Warning ** SimHVAC: Maximum iterations (20) exceeded for all HVAC loops, at ANNUAL, 02/15 17:45 - 18:00
   **   ~~~   ** The solution for one or more of the Air Loop HVAC systems did not appear to converge
   **   ~~~   ** Air System Named = CENTRAL SYSTEM did not converge for mass flow rate
   **   ~~~   ** Check values should be zero. Most Recent values listed first.
   **   ~~~   ** Demand-to-Supply interface mass flow rate check value iteration history trace: 6.214488E-002,6.214488E-002,6.214488E-002,6.214488E-002,6.214488E-002,6.214488E-002,6.214488E-002,6.214488E-002,6.214488E-002,6.214488E-002,
   **   ~~~   ** Supply-to-demand interface deck 1 mass flow rate check value iteration history trace: 6.214488E-002,6.214488E-002,6.214488E-002,6.214488E-002,6.214488E-002,6.214488E-002,6.214488E-002,6.214488E-002,6.214488E-002,6.214488E-002,
   **   ~~~   ** Air System Named = CENTRAL SYSTEM did not converge for energy
   **   ~~~   ** Check values should be zero. Most Recent values listed first.
   **   ~~~   ** Demand-to-Supply interface energy check value iteration history trace: 1231.232651,1231.232651,1231.232651,1231.232650,1231.232650,1231.232650,1231.232650,1231.232650,1231.232650,1231.232650,
   **   ~~~   ** Supply-to-demand interface deck 1 energy check value iteration history trace: 2078.370825,2078.370825,2078.370825,2078.370825,2078.370825,2078.370825,2078.370825,2078.370824,2078.370824,2078.370824,
   ** Warning ** SimHVAC: Maximum iterations (20) exceeded for all HVAC loops, at ANNUAL, 02/22 09:17 - 09:18
   **   ~~~   ** The solution for one or more of the Air Loop HVAC systems did not appear to converge
   **   ~~~   ** Air System Named = CENTRAL SYSTEM did not converge for mass flow rate
   **   ~~~   ** Check values should be zero. Most Recent values listed first.
   **   ~~~   ** Demand-to-Supply interface mass flow rate check value iteration history trace: 6.363233E-002,6.363233E-002,6.363233E-002,6.363233E-002,6.363233E-002,6.363233E-002,6.363233E-002,6.363233E-002,6.363233E-002,6.363233E-002,
   **   ~~~   ** Supply-to-demand interface deck 1 mass flow rate check value iteration history trace: 6.363233E-002,6.363233E-002,6.363233E-002,6.363233E-002,6.363233E-002,6.363233E-002,6.363233E-002,6.363233E-002,6.363233E-002,6.363233E-002,
   **   ~~~   ** Air System Named = CENTRAL SYSTEM did not converge for energy
   **   ~~~   ** Check values should be zero. Most Recent values listed first.
   **   ~~~   ** Demand-to-Supply interface energy check value iteration history trace: 1261.037314,1261.037314,1261.037314,1261.037314,1261.037314,1261.037314,1261.037314,1261.037314,1261.037314,1261.037314,
   **   ~~~   ** Supply-to-demand interface deck 1 energy check value iteration history trace: 2290.466387,2290.466387,2290.466387,2290.466387,2290.466387,2290.466387,2290.466387,2290.466387,2290.466387,2290.466387,
   ** Warning ** SimHVAC: Maximum iterations (20) exceeded for all HVAC loops, at ANNUAL, 03/05 00:45 - 01:00
   **   ~~~   ** The solution for one or more of the Air Loop HVAC systems did not appear to converge
   **   ~~~   ** Air System Named = CENTRAL SYSTEM did not converge for mass flow rate
   **   ~~~   ** Check values should be zero. Most Recent values listed first.
   **   ~~~   ** Demand-to-Supply interface mass flow rate check value iteration history trace: 5.579835E-002,5.579835E-002,5.579835E-002,5.579835E-002,5.579835E-002,5.579835E-002,5.579835E-002,5.579835E-002,5.579835E-002,5.579835E-002,
   **   ~~~   ** Supply-to-demand interface deck 1 mass flow rate check value iteration history trace: 5.579835E-002,5.579835E-002,5.579835E-002,5.579835E-002,5.579835E-002,5.579835E-002,5.579835E-002,5.579835E-002,5.579835E-002,5.579835E-002,
   **   ~~~   ** Air System Named = CENTRAL SYSTEM did not converge for energy
   **   ~~~   ** Check values should be zero. Most Recent values listed first.
   **   ~~~   ** Demand-to-Supply interface energy check value iteration history trace: 1035.472192,1035.472192,1035.472192,1035.472192,1035.472192,1035.472192,1035.472192,1035.472192,1035.472192,1035.472192,
   **   ~~~   ** Supply-to-demand interface deck 1 energy check value iteration history trace: 1674.942907,1674.942907,1674.942907,1674.942907,1674.942906,1674.942906,1674.942906,1674.942906,1674.942906,1674.942906,
   ** Warning ** SimHVAC: Maximum iterations (20) exceeded for all HVAC loops, at ANNUAL, 03/25 02:55 - 03:00
   **   ~~~   ** The solution for one or more of the Air Loop HVAC systems did not appear to converge
   **   ~~~   ** Air System Named = CENTRAL SYSTEM did not converge for mass flow rate
   **   ~~~   ** Check values should be zero. Most Recent values listed first.
   **   ~~~   ** Demand-to-Supply interface mass flow rate check value iteration history trace: 5.585810E-002,5.585810E-002,5.585810E-002,5.585810E-002,5.585810E-002,5.585810E-002,5.585810E-002,5.585810E-002,5.585810E-002,5.585810E-002,
   **   ~~~   ** Supply-to-demand interface deck 1 mass flow rate check value iteration history trace: 5.585810E-002,5.585810E-002,5.585810E-002,5.585810E-002,5.585810E-002,5.585810E-002,5.585810E-002,5.585810E-002,5.585810E-002,5.585810E-002,
   **   ~~~   ** Air System Named = CENTRAL SYSTEM did not converge for energy
   **   ~~~   ** Check values should be zero. Most Recent values listed first.
   **   ~~~   ** Demand-to-Supply interface energy check value iteration history trace: 1051.037323,1051.037323,1051.037323,1051.037323,1051.037323,1051.037323,1051.037323,1051.037323,1051.037323,1051.037323,
   **   ~~~   ** Supply-to-demand interface deck 1 energy check value iteration history trace: 1795.507473,1795.507473,1795.507473,1795.507473,1795.507473,1795.507473,1795.507473,1795.507473,1795.507473,1795.507473,
   ** Warning ** SimHVAC: Maximum iterations (20) exceeded for all HVAC loops, at ANNUAL, 04/03 00:23 - 00:30
   **   ~~~   ** The solution for one or more of the Air Loop HVAC systems did not appear to converge
   **   ~~~   ** Air System Named = CENTRAL SYSTEM did not converge for mass flow rate
   **   ~~~   ** Check values should be zero. Most Recent values listed first.
   **   ~~~   ** Demand-to-Supply interface mass flow rate check value iteration history trace: 3.818593E-002,3.818593E-002,3.818593E-002,3.818593E-002,3.818593E-002,3.818593E-002,3.818593E-002,3.818593E-002,3.818593E-002,3.818593E-002,
   **   ~~~   ** Supply-to-demand interface deck 1 mass flow rate check value iteration history trace: 3.818593E-002,3.818593E-002,3.818593E-002,3.818593E-002,3.818593E-002,3.818593E-002,3.818593E-002,3.818593E-002,3.818593E-002,3.818593E-002,
   **   ~~~   ** Air System Named = CENTRAL SYSTEM did not converge for energy
   **   ~~~   ** Check values should be zero. Most Recent values listed first.
   **   ~~~   ** Demand-to-Supply interface energy check value iteration history trace: 712.722154,712.722154,712.722154,712.722154,712.722154,712.722154,712.722154,712.722153,712.722153,712.722153,
   **   ~~~   ** Supply-to-demand interface deck 1 energy check value iteration history trace: 1142.996443,1142.996443,1142.996443,1142.996443,1142.996443,1142.996443,1142.996443,1142.996443,1142.996443,1142.996443,
   ** Warning ** CalcDoe2DXCoil: Coil:Cooling:DX:SingleSpeed "DX_COOLING_COIL" - Air-cooled condenser inlet dry-bulb temperature below 0 C. Outdoor dry-bulb temperature = -0.18
   **   ~~~   **  ... Occurrence info = ANNUAL, 11/12 19:35 - 19:40
   **   ~~~   ** ... Operation at low ambient temperatures may require special performance curves.
   ************* Simulation Error Summary *************
   ** Warning ** The following Report Variables were requested but not generated -- check.rdd file
   **   ~~~   ** Either the IDF did not contain these elements, the variable name is misspelled,
   **   ~~~   ** or the requested variable is an advanced output which requires Output : Diagnostics, DisplayAdvancedReportVariables;
   ************* Key=*, VarName=BASEBOARD TOTAL HEATING ENERGY, Frequency=
   ************* Key=*, VarName=WATER HEATER NATURALGAS ENERGY, Frequency=
   ************* Key=*, VarName=COOLING COIL TOTAL HEATING ENERGY, Frequency=
   ************* There are 34 unused schedules in input.
   ************* There are 388 unused week schedules in input.
   ************* There are 396 unused day schedules in input.
   ************* Use Output:Diagnostics,DisplayUnusedSchedules; to see them.
   *************
   ************* ===== Recurring Error Summary =====
   ************* The following recurring error messages occurred.
   *************
   *************  ** Warning ** "TOTAL HOT WATER LOAD" - Target water temperature should be less than or equal to the hot water temperature error continues...
   *************  **   ~~~   **   This error occurred 228811 total times;
   *************  **   ~~~   **   during Warmup 0 times;
   *************  **   ~~~   **   during Sizing 0 times.
   *************  **   ~~~   **   Max=11.754159  Min=3.446770E-004
   *************
   *************  ** Warning ** Temperature out of range [-100. to 200.] (PsyPsatFnTemp)
   *************  **   ~~~   **   This error occurred 1 total times;
   *************  **   ~~~   **   during Warmup 0 times;
   *************  **   ~~~   **   during Sizing 0 times.
   *************  **   ~~~   **   Max=-232.287086 C  Min=-232.287086 C
   *************
   *************  ** Warning ** SimHVAC: Exceeding Maximum iterations for all HVAC loops, during ANNUAL continues
   *************  **   ~~~   **   This error occurred 25 total times;
   *************  **   ~~~   **   during Warmup 0 times;
   *************  **   ~~~   **   during Sizing 0 times.
   *************
   *************  ** Warning ** CalcDoe2DXCoil: Coil:Cooling:DX:SingleSpeed="DX_COOLING_COIL" - Low condenser dry-bulb temperature error continues...
   *************  **   ~~~   **   This error occurred 1 total times;
   *************  **   ~~~   **   during Warmup 0 times;
   *************  **   ~~~   **   during Sizing 0 times.
   *************  **   ~~~   **   Max=-0.175 [C]  Min=-0.175 [C]
   *************
   *************
   ************* ===== Final Error Summary =====
   ************* The following error categories occurred.  Consider correcting or noting.
   ************* Nominally Unused Constructions
   ************* ..The nominally unused constructions warning is provided to alert you to potential conditions that can cause
   ************* ..extra time during simulation. Each construction is calculated by the algorithm indicated in the HeatBalanceAlgorithm
   ************* ..object. You may remove the constructions indicated (when you use the DisplayExtraWarnings option).
   *************
   ************* EnergyPlus Warmup Error Summary. During Warmup: 1 Warning; 0 Severe Errors.
   ************* EnergyPlus Sizing Error Summary. During Sizing: 4 Warning; 0 Severe Errors.
   ************* EnergyPlus Completed Successfully-- 228871 Warning; 0 Severe Errors; Elapsed Time=00hr 01min 58.05sec
