Program Version,EnergyPlus, Version 22.2.0-c249759bad, YMD=2023.09.01 19:06,
   ************* Beginning Zone Sizing Calculations
   ** Warning ** ProcessScheduleInput: Schedule:Constant="ALWAYS ON DISCRETE", Schedule Type Limits Name="ONOFF" not found -- will not be validated
   ** Warning ** Foundation:Kiva="KIVA FOUNDATION", no Interior Horizontal Insulation Material Name defined
   **   ~~~   ** Interior Horizontal Insulation Depth will not be used.
   ** Warning ** CheckUsedConstructions: There are 15 nominally unused constructions in input.
   **   ~~~   ** Each Unused construction is shown.
   ************* Construction=INTERIOR FLOOR
   ************* Construction=INTERIOR WINDOW
   ************* Construction=EXTERIOR DOOR
   ************* Construction=INTERIOR DOOR
   ************* Construction=GABLE CONSTRUCTION
   ************* Construction=CRAWL_FLOOR
   ************* Construction=INSULATED PIPE
   ************* Construction=PLAIN PIPE
   ************* Construction=TDD PIPE
   ************* Construction=TDD DOME
   ************* Construction=TDD DIFFUSER
   ************* Construction=CRAWL WALL
   ************* Construction=CEILING-FLOOR-LAYER
   ************* Construction=SLAB CONSTRUCTION W FULL R10 INSULATION
   ************* Construction=SLAB CONSTRUCTION W FULL R5 INSULATION
   ** Warning ** GetDXCoils: Coil:Heating:DX:SingleSpeed="DX_HEATING_COIL" curve values
   **   ~~~   ** ... Defrost Energy Input Ratio Function of Temperature Curve Name = DEFROSTEIR output is not equal to 1.0 (+ or - 10%) at rated conditions.
   **   ~~~   ** ... Curve output at rated conditions = 0.152
   ************* Beginning System Sizing Calculations
   ************* Beginning Plant Sizing Calculations
   ** Warning ** SizeDXCoil Coil:Cooling:DX:SingleSpeed DX_COOLING_COIL
   **   ~~~   ** ...Gross Rated Total Cooling Capacity [W] will be limited by the maximum rated volume flow per rated total capacity ratio.
   **   ~~~   ** ...DX coil volume flow rate ( m3/s ) = 0.544267
   **   ~~~   ** ...Requested capacity ( W ) = 7735.755
   **   ~~~   ** ...Requested flow/capacity ratio ( m3/s/W ) = 7.035E-005
   **   ~~~   ** ...Maximum flow/capacity ratio ( m3/s/W ) = 6.041E-005
   **   ~~~   ** ...Adjusted capacity ( W ) = 9009.560
   ** Warning ** Coil:WaterHeating:AirToWaterHeatPump:Wrapped "HEAT PUMP WATER HEATER EVAPORATOR": Rated air volume flow rate per watt of rated total water heating capacity is out of range
   **   ~~~   ** Min Rated Vol Flow Per Watt=[4.027E-005], Rated Vol Flow Per Watt=[1.510E-004], Max Rated Vol Flow Per Watt=[8.056E-005]. See Input-Output Reference Manual for valid range.
   ************* SizeFan: : Potential issue with equipment sizing for Fan:OnOff HEAT PUMP WATER HEATER FAN
   **   ~~~   ** User-Specified Maximum Flow Rate [m3/s] = 0.22653
   **   ~~~   ** differs from Design Size Maximum Flow Rate [m3/s] = 7.55250E-002
   **   ~~~   ** This may, or may not, indicate mismatched component sizes.
   **   ~~~   ** Verify that the value entered is intended and is consistent with other components.
   ** Warning ** Water heater = WATER HEATER TANK:  Recovery Efficiency and Energy Factor could not be calculated during the test for standard ratings
   **   ~~~   ** Setpoint was never recovered and/or heater never turned on
   ** Warning ** Check input. Pump nominal power or motor efficiency is set to 0, for pump=MAINS PRESSURE
   ** Warning ** Output:Meter: invalid Key Name="ELECTRIC_RANGE:INTERIOREQUIPMENT:ELECTRICITY" - not found.
   ** Warning ** Output:Meter: invalid Key Name="ELECTRIC_DRYER:INTERIOREQUIPMENT:ELECTRICITY" - not found.
   ** Warning ** Output:Meter: invalid Key Name="HEATRECOVERY:ELECTRICITY" - not found.
   ** Warning ** Output:Meter: invalid Key Name="HEATING:NATURALGAS" - not found.
   ** Warning ** Output:Meter: invalid Key Name="WATERSYSTEMS:NATURALGAS" - not found.
   ** Warning ** Output:Meter: invalid Key Name="PROPANE:FACILITY" - not found.
   ** Warning ** Output:Meter: invalid Key Name="HEATING:PROPANE" - not found.
   ************* Testing Individual Branch Integrity
   ************* All Branches passed integrity testing
   ************* Testing Individual Supply Air Path Integrity
   ************* All Supply Air Paths passed integrity testing
   ************* Testing Individual Return Air Path Integrity
   ************* All Return Air Paths passed integrity testing
   ************* No node connection errors were found.
   ************* Beginning Simulation
   ** Warning ** AirflowNetwork::Solver::validate_distribution: Heat pump water heater is simulated along with an AirflowNetwork but is not included in the AirflowNetwork.
   ** Warning ** CalcEquipmentFlowRates: "TOTAL HOT WATER LOAD" - Target water temperature is greater than the hot water temperature by (1.28 C)
   **   ~~~   **  Environment=EXTREME_WINTER, at Simulation time=12/22 06:45 - 07:00
   **   ~~~   ** ...target water temperature     = 53.33 C
   **   ~~~   ** ...hot water temperature        = 52.05 C
   **   ~~~   ** ...Target water temperature should be less than or equal to the hot water temperature. Verify temperature setpoints and schedules.
   ** Warning ** SimHVAC: Maximum iterations (20) exceeded for all HVAC loops, at EXTREME_WINTER, 12/24 10:00 - 10:05
   **   ~~~   ** The solution for one or more of the Air Loop HVAC systems did not appear to converge
   **   ~~~   ** Air System Named = CENTRAL SYSTEM did not converge for mass flow rate
   **   ~~~   ** Check values should be zero. Most Recent values listed first.
   **   ~~~   ** Demand-to-Supply interface mass flow rate check value iteration history trace: 5.633539E-002,5.633539E-002,5.633539E-002,5.633539E-002,5.633539E-002,5.633539E-002,5.633539E-002,5.633539E-002,5.633539E-002,5.633539E-002,
   **   ~~~   ** Supply-to-demand interface deck 1 mass flow rate check value iteration history trace: 5.633539E-002,5.633539E-002,5.633539E-002,5.633539E-002,5.633539E-002,5.633539E-002,5.633539E-002,5.633539E-002,5.633539E-002,5.633539E-002,
   **   ~~~   ** Air System Named = CENTRAL SYSTEM did not converge for energy
   **   ~~~   ** Check values should be zero. Most Recent values listed first.
   **   ~~~   ** Demand-to-Supply interface energy check value iteration history trace: 1113.105229,1113.105229,1113.105229,1113.105229,1113.105229,1113.105229,1113.105229,1113.105229,1113.105229,1113.105229,
   **   ~~~   ** Supply-to-demand interface deck 1 energy check value iteration history trace: 1994.777525,1994.777525,1994.777525,1994.777525,1994.777525,1994.777525,1994.777525,1994.777525,1994.777524,1994.777524,
   ** Warning ** SimHVAC: Maximum iterations (20) exceeded for all HVAC loops, at EXTREME_SUMMER, 07/05 04:30 - 04:45
   **   ~~~   ** The solution for one or more of the Air Loop HVAC systems did not appear to converge
   **   ~~~   ** Air System Named = CENTRAL SYSTEM did not converge for mass flow rate
   **   ~~~   ** Check values should be zero. Most Recent values listed first.
   **   ~~~   ** Demand-to-Supply interface mass flow rate check value iteration history trace: 9.206308E-002,9.206308E-002,9.206308E-002,9.206308E-002,9.206308E-002,9.206308E-002,9.206308E-002,9.206308E-002,9.206308E-002,9.206308E-002,
   **   ~~~   ** Supply-to-demand interface deck 1 mass flow rate check value iteration history trace: 9.206308E-002,9.206308E-002,9.206308E-002,9.206308E-002,9.206308E-002,9.206308E-002,9.206308E-002,9.206308E-002,9.206308E-002,9.206308E-002,
   **   ~~~   ** Air System Named = CENTRAL SYSTEM did not converge for energy
   **   ~~~   ** Check values should be zero. Most Recent values listed first.
   **   ~~~   ** Demand-to-Supply interface energy check value iteration history trace: 2321.252450,2321.252450,2321.252451,2321.252452,2321.252452,2321.252453,2321.252453,2321.252454,2321.252455,2321.252455,
   **   ~~~   ** Supply-to-demand interface deck 1 energy check value iteration history trace: 1019.975478,1019.975478,1019.975479,1019.975479,1019.975479,1019.975479,1019.975480,1019.975480,1019.975480,1019.975480,
   ** Warning ** SimHVAC: Maximum iterations (20) exceeded for all HVAC loops, at ANNUAL, 01/28 11:25 - 11:30
   **   ~~~   ** The solution for one or more of the Air Loop HVAC systems did not appear to converge
   **   ~~~   ** Air System Named = CENTRAL SYSTEM did not converge for mass flow rate
   **   ~~~   ** Check values should be zero. Most Recent values listed first.
   **   ~~~   ** Demand-to-Supply interface mass flow rate check value iteration history trace: 6.598997E-002,6.598997E-002,6.598997E-002,6.598997E-002,6.598997E-002,6.598997E-002,6.598997E-002,6.598997E-002,6.598997E-002,6.598997E-002,
   **   ~~~   ** Supply-to-demand interface deck 1 mass flow rate check value iteration history trace: 6.598997E-002,6.598997E-002,6.598997E-002,6.598997E-002,6.598997E-002,6.598997E-002,6.598997E-002,6.598997E-002,6.598997E-002,6.598997E-002,
   **   ~~~   ** Air System Named = CENTRAL SYSTEM did not converge for energy
   **   ~~~   ** Check values should be zero. Most Recent values listed first.
   **   ~~~   ** Demand-to-Supply interface energy check value iteration history trace: 1307.724435,1307.724435,1307.724435,1307.724435,1307.724435,1307.724435,1307.724435,1307.724435,1307.724435,1307.724435,
   **   ~~~   ** Supply-to-demand interface deck 1 energy check value iteration history trace: 2298.580793,2298.580793,2298.580793,2298.580793,2298.580792,2298.580792,2298.580792,2298.580792,2298.580792,2298.580792,
   ** Warning ** SimHVAC: Maximum iterations (20) exceeded for all HVAC loops, at ANNUAL, 02/09 08:30 - 08:35
   **   ~~~   ** The solution for one or more of the Air Loop HVAC systems did not appear to converge
   **   ~~~   ** Air System Named = CENTRAL SYSTEM did not converge for mass flow rate
   **   ~~~   ** Check values should be zero. Most Recent values listed first.
   **   ~~~   ** Demand-to-Supply interface mass flow rate check value iteration history trace: 4.041985E-002,4.041985E-002,4.041985E-002,4.041985E-002,4.041985E-002,4.041985E-002,4.041985E-002,4.041985E-002,4.041985E-002,4.041985E-002,
   **   ~~~   ** Supply-to-demand interface deck 1 mass flow rate check value iteration history trace: 4.041985E-002,4.041985E-002,4.041985E-002,4.041985E-002,4.041985E-002,4.041985E-002,4.041985E-002,4.041985E-002,4.041985E-002,4.041985E-002,
   **   ~~~   ** Air System Named = CENTRAL SYSTEM did not converge for energy
   **   ~~~   ** Check values should be zero. Most Recent values listed first.
   **   ~~~   ** Demand-to-Supply interface energy check value iteration history trace: 800.991784,800.991784,800.991784,800.991784,800.991784,800.991784,800.991784,800.991784,800.991784,800.991784,
   **   ~~~   ** Supply-to-demand interface deck 1 energy check value iteration history trace: 1562.492335,1562.492335,1562.492335,1562.492335,1562.492335,1562.492335,1562.492335,1562.492335,1562.492335,1562.492335,
   ** Warning ** SimHVAC: Maximum iterations (20) exceeded for all HVAC loops, at ANNUAL, 02/15 09:17 - 09:19
   **   ~~~   ** The solution for one or more of the Air Loop HVAC systems did not appear to converge
   **   ~~~   ** Air System Named = CENTRAL SYSTEM did not converge for mass flow rate
   **   ~~~   ** Check values should be zero. Most Recent values listed first.
   **   ~~~   ** Demand-to-Supply interface mass flow rate check value iteration history trace: 6.178072E-002,6.178072E-002,6.178072E-002,6.178072E-002,6.178072E-002,6.178072E-002,6.178072E-002,6.178072E-002,6.178072E-002,6.178072E-002,
   **   ~~~   ** Supply-to-demand interface deck 1 mass flow rate check value iteration history trace: 6.178072E-002,6.178072E-002,6.178072E-002,6.178072E-002,6.178072E-002,6.178072E-002,6.178072E-002,6.178072E-002,6.178072E-002,6.178072E-002,
   **   ~~~   ** Air System Named = CENTRAL SYSTEM did not converge for energy
   **   ~~~   ** Check values should be zero. Most Recent values listed first.
   **   ~~~   ** Demand-to-Supply interface energy check value iteration history trace: 1224.336591,1224.336591,1224.336591,1224.336591,1224.336591,1224.336591,1224.336591,1224.336591,1224.336591,1224.336591,
   **   ~~~   ** Supply-to-demand interface deck 1 energy check value iteration history trace: 2232.638863,2232.638863,2232.638863,2232.638863,2232.638863,2232.638863,2232.638863,2232.638863,2232.638863,2232.638863,
   ** Warning ** SimHVAC: Maximum iterations (20) exceeded for all HVAC loops, at ANNUAL, 02/25 09:45 - 09:50
   **   ~~~   ** The solution for one or more of the Air Loop HVAC systems did not appear to converge
   **   ~~~   ** Air System Named = CENTRAL SYSTEM did not converge for mass flow rate
   **   ~~~   ** Check values should be zero. Most Recent values listed first.
   **   ~~~   ** Demand-to-Supply interface mass flow rate check value iteration history trace: 5.953242E-002,5.953242E-002,5.953242E-002,5.953242E-002,5.953242E-002,5.953242E-002,5.953242E-002,5.953242E-002,5.953242E-002,5.953242E-002,
   **   ~~~   ** Supply-to-demand interface deck 1 mass flow rate check value iteration history trace: 5.953242E-002,5.953242E-002,5.953242E-002,5.953242E-002,5.953242E-002,5.953242E-002,5.953242E-002,5.953242E-002,5.953242E-002,5.953242E-002,
   **   ~~~   ** Air System Named = CENTRAL SYSTEM did not converge for energy
   **   ~~~   ** Check values should be zero. Most Recent values listed first.
   **   ~~~   ** Demand-to-Supply interface energy check value iteration history trace: 1179.734105,1179.734105,1179.734105,1179.734105,1179.734105,1179.734105,1179.734105,1179.734105,1179.734105,1179.734105,
   **   ~~~   ** Supply-to-demand interface deck 1 energy check value iteration history trace: 2189.080383,2189.080383,2189.080383,2189.080383,2189.080383,2189.080383,2189.080382,2189.080382,2189.080382,2189.080382,
   ** Warning ** SimHVAC: Maximum iterations (20) exceeded for all HVAC loops, at ANNUAL, 02/26 08:45 - 08:52
   **   ~~~   ** The solution for one or more of the Air Loop HVAC systems did not appear to converge
   **   ~~~   ** Air System Named = CENTRAL SYSTEM did not converge for mass flow rate
   **   ~~~   ** Check values should be zero. Most Recent values listed first.
   **   ~~~   ** Demand-to-Supply interface mass flow rate check value iteration history trace: 6.154973E-002,6.154973E-002,6.154973E-002,6.154973E-002,6.154973E-002,6.154973E-002,6.154973E-002,6.154973E-002,6.154973E-002,6.154973E-002,
   **   ~~~   ** Supply-to-demand interface deck 1 mass flow rate check value iteration history trace: 6.154973E-002,6.154973E-002,6.154973E-002,6.154973E-002,6.154973E-002,6.154973E-002,6.154973E-002,6.154973E-002,6.154973E-002,6.154973E-002,
   **   ~~~   ** Air System Named = CENTRAL SYSTEM did not converge for energy
   **   ~~~   ** Check values should be zero. Most Recent values listed first.
   **   ~~~   ** Demand-to-Supply interface energy check value iteration history trace: 1219.689190,1219.689190,1219.689190,1219.689190,1219.689190,1219.689190,1219.689190,1219.689190,1219.689190,1219.689190,
   **   ~~~   ** Supply-to-demand interface deck 1 energy check value iteration history trace: 2249.401687,2249.401687,2249.401687,2249.401687,2249.401687,2249.401686,2249.401686,2249.401686,2249.401686,2249.401686,
   ** Warning ** SimHVAC: Maximum iterations (20) exceeded for all HVAC loops, at ANNUAL, 02/27 04:30 - 04:45
   **   ~~~   ** The solution for one or more of the Air Loop HVAC systems did not appear to converge
   **   ~~~   ** Air System Named = CENTRAL SYSTEM did not converge for mass flow rate
   **   ~~~   ** Check values should be zero. Most Recent values listed first.
   **   ~~~   ** Demand-to-Supply interface mass flow rate check value iteration history trace: 5.334449E-002,5.334449E-002,5.334449E-002,5.334449E-002,5.334449E-002,5.334449E-002,5.334449E-002,5.334449E-002,5.334449E-002,5.334449E-002,
   **   ~~~   ** Supply-to-demand interface deck 1 mass flow rate check value iteration history trace: 5.334449E-002,5.334449E-002,5.334449E-002,5.334449E-002,5.334449E-002,5.334449E-002,5.334449E-002,5.334449E-002,5.334449E-002,5.334449E-002,
   **   ~~~   ** Air System Named = CENTRAL SYSTEM did not converge for energy
   **   ~~~   ** Check values should be zero. Most Recent values listed first.
   **   ~~~   ** Demand-to-Supply interface energy check value iteration history trace: 1003.129731,1003.129731,1003.129731,1003.129731,1003.129731,1003.129731,1003.129731,1003.129731,1003.129731,1003.129731,
   **   ~~~   ** Supply-to-demand interface deck 1 energy check value iteration history trace: 1840.854080,1840.854079,1840.854079,1840.854079,1840.854079,1840.854079,1840.854079,1840.854079,1840.854079,1840.854079,
   ** Warning ** Temperature out of range [-100. to 200.] (PsyPsatFnTemp)
   **   ~~~   **  Routine=PsyTwbFnTdbWPb, Environment=ANNUAL, at Simulation time=03/05 07:15 - 07:22
   **   ~~~   **  Input Temperature=-154.34
   ** Warning ** SimHVAC: Maximum iterations (20) exceeded for all HVAC loops, at ANNUAL, 03/08 10:11 - 10:15
   **   ~~~   ** The solution for one or more of the Air Loop HVAC systems did not appear to converge
   **   ~~~   ** Air System Named = CENTRAL SYSTEM did not converge for mass flow rate
   **   ~~~   ** Check values should be zero. Most Recent values listed first.
   **   ~~~   ** Demand-to-Supply interface mass flow rate check value iteration history trace: 5.300484E-002,5.300484E-002,5.300484E-002,5.300484E-002,5.300484E-002,5.300484E-002,5.300484E-002,5.300484E-002,5.300484E-002,5.300484E-002,
   **   ~~~   ** Supply-to-demand interface deck 1 mass flow rate check value iteration history trace: 5.300484E-002,5.300484E-002,5.300484E-002,5.300484E-002,5.300484E-002,5.300484E-002,5.300484E-002,5.300484E-002,5.300484E-002,5.300484E-002,
   **   ~~~   ** Air System Named = CENTRAL SYSTEM did not converge for energy
   **   ~~~   ** Check values should be zero. Most Recent values listed first.
   **   ~~~   ** Demand-to-Supply interface energy check value iteration history trace: 1044.727562,1044.727562,1044.727562,1044.727562,1044.727562,1044.727562,1044.727561,1044.727561,1044.727561,1044.727561,
   **   ~~~   ** Supply-to-demand interface deck 1 energy check value iteration history trace: 1899.551879,1899.551879,1899.551879,1899.551879,1899.551879,1899.551879,1899.551879,1899.551879,1899.551879,1899.551879,
   ** Warning ** SimHVAC: Maximum iterations (20) exceeded for all HVAC loops, at ANNUAL, 03/09 09:41 - 09:42
   **   ~~~   ** The solution for one or more of the Air Loop HVAC systems did not appear to converge
   **   ~~~   ** Air System Named = CENTRAL SYSTEM did not converge for mass flow rate
   **   ~~~   ** Check values should be zero. Most Recent values listed first.
   **   ~~~   ** Demand-to-Supply interface mass flow rate check value iteration history trace: 6.006205E-002,6.006205E-002,6.006205E-002,6.006205E-002,6.006205E-002,6.006205E-002,6.006205E-002,6.006205E-002,6.006205E-002,6.006205E-002,
   **   ~~~   ** Supply-to-demand interface deck 1 mass flow rate check value iteration history trace: 6.006205E-002,6.006205E-002,6.006205E-002,6.006205E-002,6.006205E-002,6.006205E-002,6.006205E-002,6.006205E-002,6.006205E-002,6.006205E-002,
   **   ~~~   ** Air System Named = CENTRAL SYSTEM did not converge for energy
   **   ~~~   ** Check values should be zero. Most Recent values listed first.
   **   ~~~   ** Demand-to-Supply interface energy check value iteration history trace: 1184.781328,1184.781328,1184.781328,1184.781328,1184.781328,1184.781328,1184.781328,1184.781328,1184.781328,1184.781328,
   **   ~~~   ** Supply-to-demand interface deck 1 energy check value iteration history trace: 2276.992311,2276.992311,2276.992311,2276.992310,2276.992310,2276.992310,2276.992310,2276.992310,2276.992310,2276.992310,
   ** Warning ** SimHVAC: Maximum iterations (20) exceeded for all HVAC loops, at ANNUAL, 03/24 09:15 - 09:30
   **   ~~~   ** The solution for one or more of the Air Loop HVAC systems did not appear to converge
   **   ~~~   ** Air System Named = CENTRAL SYSTEM did not converge for mass flow rate
   **   ~~~   ** Check values should be zero. Most Recent values listed first.
   **   ~~~   ** Demand-to-Supply interface mass flow rate check value iteration history trace: 5.253272E-002,5.253272E-002,5.253272E-002,5.253272E-002,5.253272E-002,5.253272E-002,5.253272E-002,5.253272E-002,5.253272E-002,5.253272E-002,
   **   ~~~   ** Supply-to-demand interface deck 1 mass flow rate check value iteration history trace: 5.253272E-002,5.253272E-002,5.253272E-002,5.253272E-002,5.253272E-002,5.253272E-002,5.253272E-002,5.253272E-002,5.253272E-002,5.253272E-002,
   **   ~~~   ** Air System Named = CENTRAL SYSTEM did not converge for energy
   **   ~~~   ** Check values should be zero. Most Recent values listed first.
   **   ~~~   ** Demand-to-Supply interface energy check value iteration history trace: 1039.399704,1039.399704,1039.399704,1039.399704,1039.399704,1039.399704,1039.399704,1039.399704,1039.399704,1039.399704,
   **   ~~~   ** Supply-to-demand interface deck 1 energy check value iteration history trace: 1900.077476,1900.077476,1900.077476,1900.077476,1900.077476,1900.077476,1900.077476,1900.077476,1900.077476,1900.077476,
   ** Warning ** SimHVAC: Maximum iterations (20) exceeded for all HVAC loops, at ANNUAL, 04/07 08:15 - 08:20
   **   ~~~   ** The solution for one or more of the Air Loop HVAC systems did not appear to converge
   **   ~~~   ** Air System Named = CENTRAL SYSTEM did not converge for mass flow rate
   **   ~~~   ** Check values should be zero. Most Recent values listed first.
   **   ~~~   ** Demand-to-Supply interface mass flow rate check value iteration history trace: 4.819008E-002,4.819008E-002,4.819008E-002,4.819008E-002,4.819008E-002,4.819008E-002,4.819008E-002,4.819008E-002,4.819008E-002,4.819008E-002,
   **   ~~~   ** Supply-to-demand interface deck 1 mass flow rate check value iteration history trace: 4.819008E-002,4.819008E-002,4.819008E-002,4.819008E-002,4.819008E-002,4.819008E-002,4.819008E-002,4.819008E-002,4.819008E-002,4.819008E-002,
   **   ~~~   ** Air System Named = CENTRAL SYSTEM did not converge for energy
   **   ~~~   ** Check values should be zero. Most Recent values listed first.
   **   ~~~   ** Demand-to-Supply interface energy check value iteration history trace: 951.132064,951.132064,951.132064,951.132064,951.132064,951.132064,951.132064,951.132064,951.132064,951.132063,
   **   ~~~   ** Supply-to-demand interface deck 1 energy check value iteration history trace: 1828.529107,1828.529107,1828.529107,1828.529107,1828.529107,1828.529107,1828.529106,1828.529106,1828.529106,1828.529106,
   **   ~~~   ** Node named ZONE INLET NODE shows oscillating temperatures across iterations with a repeated value of 37.761189
   **   ~~~   ** Node named ZONE INLET NODE temperature [C] iteration history trace (most recent first): 37.761189,37.761189,37.761188,37.761188,37.761188,37.761188,37.761188,37.761187,37.761187,37.761187,
   ** Warning ** SimHVAC: Maximum iterations (20) exceeded for all HVAC loops, at ANNUAL, 04/12 06:00 - 06:08
   **   ~~~   ** The solution for one or more of the Air Loop HVAC systems did not appear to converge
   **   ~~~   ** Air System Named = CENTRAL SYSTEM did not converge for mass flow rate
   **   ~~~   ** Check values should be zero. Most Recent values listed first.
   **   ~~~   ** Demand-to-Supply interface mass flow rate check value iteration history trace: 1.289942E-002,1.289942E-002,1.289942E-002,1.289942E-002,1.289942E-002,1.289942E-002,1.289942E-002,1.289942E-002,1.289942E-002,1.289942E-002,
   **   ~~~   ** Supply-to-demand interface deck 1 mass flow rate check value iteration history trace: 1.289942E-002,1.289942E-002,1.289942E-002,1.289942E-002,1.289942E-002,1.289942E-002,1.289942E-002,1.289942E-002,1.289942E-002,1.289942E-002,
   **   ~~~   ** Air System Named = CENTRAL SYSTEM did not converge for energy
   **   ~~~   ** Check values should be zero. Most Recent values listed first.
   **   ~~~   ** Demand-to-Supply interface energy check value iteration history trace: 255.465132,255.465132,255.465132,255.465132,255.465132,255.465132,255.465132,255.465132,255.465132,255.465132,
   **   ~~~   ** Supply-to-demand interface deck 1 energy check value iteration history trace: 451.263767,451.263767,451.263767,451.263767,451.263767,451.263767,451.263767,451.263767,451.263767,451.263767,
   ** Warning ** SimHVAC: Maximum iterations (20) exceeded for all HVAC loops, at ANNUAL, 04/30 21:15 - 21:30
   **   ~~~   ** The solution for one or more of the Air Loop HVAC systems did not appear to converge
   **   ~~~   ** Air System Named = CENTRAL SYSTEM did not converge for mass flow rate
   **   ~~~   ** Check values should be zero. Most Recent values listed first.
   **   ~~~   ** Demand-to-Supply interface mass flow rate check value iteration history trace: 5.476167E-002,5.476167E-002,5.476167E-002,5.476167E-002,5.476167E-002,5.476167E-002,5.476167E-002,5.476167E-002,5.476167E-002,5.476167E-002,
   **   ~~~   ** Supply-to-demand interface deck 1 mass flow rate check value iteration history trace: 5.476167E-002,5.476167E-002,5.476167E-002,5.476167E-002,5.476167E-002,5.476167E-002,5.476167E-002,5.476167E-002,5.476167E-002,5.476167E-002,
   **   ~~~   ** Air System Named = CENTRAL SYSTEM did not converge for energy
   **   ~~~   ** Check values should be zero. Most Recent values listed first.
   **   ~~~   ** Demand-to-Supply interface energy check value iteration history trace: 1304.566933,1304.566933,1304.566933,1304.566934,1304.566934,1304.566934,1304.566934,1304.566934,1304.566934,1304.566934,
   **   ~~~   ** Supply-to-demand interface deck 1 energy check value iteration history trace: 391.618701,391.618701,391.618701,391.618701,391.618701,391.618701,391.618701,391.618701,391.618701,391.618701,
   ************* Simulation Error Summary *************
   ** Warning ** The following Report Variables were requested but not generated -- check.rdd file
   **   ~~~   ** Either the IDF did not contain these elements, the variable name is misspelled,
   **   ~~~   ** or the requested variable is an advanced output which requires Output : Diagnostics, DisplayAdvancedReportVariables;
   ************* Key=*, VarName=BASEBOARD TOTAL HEATING ENERGY, Frequency=
   ************* Key=*, VarName=WATER HEATER NATURALGAS ENERGY, Frequency=
   ************* Key=*, VarName=COOLING COIL TOTAL HEATING ENERGY, Frequency=
   ************* There are 34 unused schedules in input.
   ************* There are 388 unused week schedules in input.
   ************* There are 397 unused day schedules in input.
   ************* Use Output:Diagnostics,DisplayUnusedSchedules; to see them.
   *************
   ************* ===== Recurring Error Summary =====
   ************* The following recurring error messages occurred.
   *************
   *************  ** Warning ** "TOTAL HOT WATER LOAD" - Target water temperature should be less than or equal to the hot water temperature error continues...
   *************  **   ~~~   **   This error occurred 126531 total times;
   *************  **   ~~~   **   during Warmup 0 times;
   *************  **   ~~~   **   during Sizing 0 times.
   *************  **   ~~~   **   Max=9.512599  Min=2.212678E-003
   *************
   *************  ** Warning ** Temperature out of range [-100. to 200.] (PsyPsatFnTemp)
   *************  **   ~~~   **   This error occurred 2 total times;
   *************  **   ~~~   **   during Warmup 0 times;
   *************  **   ~~~   **   during Sizing 0 times.
   *************  **   ~~~   **   Max=-154.344551 C  Min=-166.66993 C
   *************
   *************  ** Warning ** SimHVAC: Exceeding Maximum iterations for all HVAC loops, during ANNUAL continues
   *************  **   ~~~   **   This error occurred 7 total times;
   *************  **   ~~~   **   during Warmup 0 times;
   *************  **   ~~~   **   during Sizing 0 times.
   *************
   *************
   ************* ===== Final Error Summary =====
   ************* The following error categories occurred.  Consider correcting or noting.
   ************* Nominally Unused Constructions
   ************* ..The nominally unused constructions warning is provided to alert you to potential conditions that can cause
   ************* ..extra time during simulation. Each construction is calculated by the algorithm indicated in the HeatBalanceAlgorithm
   ************* ..object. You may remove the constructions indicated (when you use the DisplayExtraWarnings option).
   *************
   ************* EnergyPlus Warmup Error Summary. During Warmup: 1 Warning; 0 Severe Errors.
   ************* EnergyPlus Sizing Error Summary. During Sizing: 4 Warning; 0 Severe Errors.
   ************* EnergyPlus Completed Successfully-- 126572 Warning; 0 Severe Errors; Elapsed Time=00hr 01min 51.95sec
