Program Version,EnergyPlus, Version 22.2.0-c249759bad, YMD=2023.09.01 19:16,
   ************* Beginning Zone Sizing Calculations
   ** Warning ** ProcessScheduleInput: Schedule:Constant="ALWAYS ON DISCRETE", Schedule Type Limits Name="ONOFF" not found -- will not be validated
   ** Warning ** Foundation:Kiva="KIVA FOUNDATION", no Interior Horizontal Insulation Material Name defined
   **   ~~~   ** Interior Horizontal Insulation Depth will not be used.
   ** Warning ** CheckUsedConstructions: There are 15 nominally unused constructions in input.
   **   ~~~   ** Each Unused construction is shown.
   ************* Construction=INTERIOR FLOOR
   ************* Construction=INTERIOR WINDOW
   ************* Construction=EXTERIOR DOOR
   ************* Construction=INTERIOR DOOR
   ************* Construction=GABLE CONSTRUCTION
   ************* Construction=CRAWL_FLOOR
   ************* Construction=INSULATED PIPE
   ************* Construction=PLAIN PIPE
   ************* Construction=TDD PIPE
   ************* Construction=TDD DOME
   ************* Construction=TDD DIFFUSER
   ************* Construction=CRAWL WALL
   ************* Construction=CEILING-FLOOR-LAYER
   ************* Construction=SLAB CONSTRUCTION W FULL R10 INSULATION
   ************* Construction=SLAB CONSTRUCTION W FULL R5 INSULATION
   ** Warning ** GetDXCoils: Coil:Heating:DX:SingleSpeed="DX_HEATING_COIL" curve values
   **   ~~~   ** ... Defrost Energy Input Ratio Function of Temperature Curve Name = DEFROSTEIR output is not equal to 1.0 (+ or - 10%) at rated conditions.
   **   ~~~   ** ... Curve output at rated conditions = 0.152
   ************* Beginning System Sizing Calculations
   ************* Beginning Plant Sizing Calculations
   ** Warning ** SizeDXCoil Coil:Cooling:DX:SingleSpeed DX_COOLING_COIL
   **   ~~~   ** ...Gross Rated Total Cooling Capacity [W] will be limited by the maximum rated volume flow per rated total capacity ratio.
   **   ~~~   ** ...DX coil volume flow rate ( m3/s ) = 0.524024
   **   ~~~   ** ...Requested capacity ( W ) = 6482.640
   **   ~~~   ** ...Requested flow/capacity ratio ( m3/s/W ) = 8.083E-005
   **   ~~~   ** ...Maximum flow/capacity ratio ( m3/s/W ) = 6.041E-005
   **   ~~~   ** ...Adjusted capacity ( W ) = 8674.472
   ** Warning ** SizeDXCoil Coil:Heating:DX:SingleSpeed DX_HEATING_COIL
   **   ~~~   ** ...Gross Rated Heating Capacity [W] will be limited by the maximum rated volume flow per rated total capacity ratio.
   **   ~~~   ** ...DX coil volume flow rate ( m3/s ) = 0.524024
   **   ~~~   ** ...Requested capacity ( W ) = 8674.472
   **   ~~~   ** ...Requested flow/capacity ratio ( m3/s/W ) = 6.041E-005
   **   ~~~   ** ...Maximum flow/capacity ratio ( m3/s/W ) = 6.041E-005
   **   ~~~   ** ...Adjusted capacity ( W ) = 8674.472
   ** Warning ** Coil:WaterHeating:AirToWaterHeatPump:Wrapped "HEAT PUMP WATER HEATER EVAPORATOR": Rated air volume flow rate per watt of rated total water heating capacity is out of range
   **   ~~~   ** Min Rated Vol Flow Per Watt=[4.027E-005], Rated Vol Flow Per Watt=[1.510E-004], Max Rated Vol Flow Per Watt=[8.056E-005]. See Input-Output Reference Manual for valid range.
   ************* SizeFan: : Potential issue with equipment sizing for Fan:OnOff HEAT PUMP WATER HEATER FAN
   **   ~~~   ** User-Specified Maximum Flow Rate [m3/s] = 0.22653
   **   ~~~   ** differs from Design Size Maximum Flow Rate [m3/s] = 7.55250E-002
   **   ~~~   ** This may, or may not, indicate mismatched component sizes.
   **   ~~~   ** Verify that the value entered is intended and is consistent with other components.
   ** Warning ** Water heater = WATER HEATER TANK:  Recovery Efficiency and Energy Factor could not be calculated during the test for standard ratings
   **   ~~~   ** Setpoint was never recovered and/or heater never turned on
   ** Warning ** Check input. Pump nominal power or motor efficiency is set to 0, for pump=MAINS PRESSURE
   ** Warning ** Output:Meter: invalid Key Name="ELECTRIC_RANGE:INTERIOREQUIPMENT:ELECTRICITY" - not found.
   ** Warning ** Output:Meter: invalid Key Name="ELECTRIC_DRYER:INTERIOREQUIPMENT:ELECTRICITY" - not found.
   ** Warning ** Output:Meter: invalid Key Name="HEATRECOVERY:ELECTRICITY" - not found.
   ** Warning ** Output:Meter: invalid Key Name="HEATING:NATURALGAS" - not found.
   ** Warning ** Output:Meter: invalid Key Name="WATERSYSTEMS:NATURALGAS" - not found.
   ** Warning ** Output:Meter: invalid Key Name="PROPANE:FACILITY" - not found.
   ** Warning ** Output:Meter: invalid Key Name="HEATING:PROPANE" - not found.
   ************* Testing Individual Branch Integrity
   ************* All Branches passed integrity testing
   ************* Testing Individual Supply Air Path Integrity
   ************* All Supply Air Paths passed integrity testing
   ************* Testing Individual Return Air Path Integrity
   ************* All Return Air Paths passed integrity testing
   ************* No node connection errors were found.
   ************* Beginning Simulation
   ** Warning ** AirflowNetwork::Solver::validate_distribution: Heat pump water heater is simulated along with an AirflowNetwork but is not included in the AirflowNetwork.
   ** Warning ** CalcEquipmentFlowRates: "TOTAL HOT WATER LOAD" - Target water temperature is greater than the hot water temperature by (1.19 C)
   **   ~~~   **  Environment=EXTREME_WINTER, at Simulation time=12/22 06:45 - 07:00
   **   ~~~   ** ...target water temperature     = 53.33 C
   **   ~~~   ** ...hot water temperature        = 52.15 C
   **   ~~~   ** ...Target water temperature should be less than or equal to the hot water temperature. Verify temperature setpoints and schedules.
   ** Warning ** SimHVAC: Maximum iterations (20) exceeded for all HVAC loops, at EXTREME_WINTER, 01/02 17:56 - 18:00
   **   ~~~   ** The solution for one or more of the Air Loop HVAC systems did not appear to converge
   **   ~~~   ** Air System Named = CENTRAL SYSTEM did not converge for mass flow rate
   **   ~~~   ** Check values should be zero. Most Recent values listed first.
   **   ~~~   ** Demand-to-Supply interface mass flow rate check value iteration history trace: 6.594096E-002,6.594096E-002,6.594096E-002,6.594096E-002,6.594096E-002,6.594096E-002,6.594096E-002,6.594096E-002,6.594096E-002,6.594096E-002,
   **   ~~~   ** Supply-to-demand interface deck 1 mass flow rate check value iteration history trace: 6.594096E-002,6.594096E-002,6.594096E-002,6.594096E-002,6.594096E-002,6.594096E-002,6.594096E-002,6.594096E-002,6.594096E-002,6.594096E-002,
   **   ~~~   ** Air System Named = CENTRAL SYSTEM did not converge for energy
   **   ~~~   ** Check values should be zero. Most Recent values listed first.
   **   ~~~   ** Demand-to-Supply interface energy check value iteration history trace: 1308.871571,1308.871571,1308.871571,1308.871571,1308.871571,1308.871570,1308.871570,1308.871570,1308.871570,1308.871570,
   **   ~~~   ** Supply-to-demand interface deck 1 energy check value iteration history trace: 2094.140072,2094.140071,2094.140071,2094.140071,2094.140071,2094.140071,2094.140071,2094.140071,2094.140071,2094.140071,
   ** Warning ** SimHVAC: Maximum iterations (20) exceeded for all HVAC loops, at EXTREME_WINTER, 01/02 18:45 - 19:00
   **   ~~~   ** The solution for one or more of the Air Loop HVAC systems did not appear to converge
   **   ~~~   ** Air System Named = CENTRAL SYSTEM did not converge for mass flow rate
   **   ~~~   ** Check values should be zero. Most Recent values listed first.
   **   ~~~   ** Demand-to-Supply interface mass flow rate check value iteration history trace: 4.123329E-002,4.123329E-002,4.123329E-002,4.123329E-002,4.123329E-002,4.123329E-002,4.123329E-002,4.123329E-002,4.123329E-002,4.123329E-002,
   **   ~~~   ** Supply-to-demand interface deck 1 mass flow rate check value iteration history trace: 4.123329E-002,4.123329E-002,4.123329E-002,4.123329E-002,4.123329E-002,4.123329E-002,4.123329E-002,4.123329E-002,4.123329E-002,4.123329E-002,
   **   ~~~   ** Air System Named = CENTRAL SYSTEM did not converge for energy
   **   ~~~   ** Check values should be zero. Most Recent values listed first.
   **   ~~~   ** Demand-to-Supply interface energy check value iteration history trace: 816.729720,816.729720,816.729720,816.729720,816.729720,816.729720,816.729720,816.729719,816.729719,816.729719,
   **   ~~~   ** Supply-to-demand interface deck 1 energy check value iteration history trace: 1295.729629,1295.729629,1295.729629,1295.729628,1295.729628,1295.729628,1295.729628,1295.729628,1295.729628,1295.729628,
   ** Warning ** SimHVAC: Maximum iterations (20) exceeded for all HVAC loops, at EXTREME_WINTER, 01/03 19:15 - 19:20
   **   ~~~   ** The solution for one or more of the Air Loop HVAC systems did not appear to converge
   **   ~~~   ** Air System Named = CENTRAL SYSTEM did not converge for mass flow rate
   **   ~~~   ** Check values should be zero. Most Recent values listed first.
   **   ~~~   ** Demand-to-Supply interface mass flow rate check value iteration history trace: 6.909939E-002,6.909939E-002,6.909939E-002,6.909939E-002,6.909939E-002,6.909939E-002,6.909939E-002,6.909939E-002,6.909939E-002,6.909939E-002,
   **   ~~~   ** Supply-to-demand interface deck 1 mass flow rate check value iteration history trace: 6.909939E-002,6.909939E-002,6.909939E-002,6.909939E-002,6.909939E-002,6.909939E-002,6.909939E-002,6.909939E-002,6.909939E-002,6.909939E-002,
   **   ~~~   ** Air System Named = CENTRAL SYSTEM did not converge for energy
   **   ~~~   ** Check values should be zero. Most Recent values listed first.
   **   ~~~   ** Demand-to-Supply interface energy check value iteration history trace: 1358.504699,1358.504699,1358.504699,1358.504699,1358.504699,1358.504699,1358.504699,1358.504699,1358.504699,1358.504698,
   **   ~~~   ** Supply-to-demand interface deck 1 energy check value iteration history trace: 2239.381486,2239.381486,2239.381486,2239.381486,2239.381486,2239.381486,2239.381485,2239.381485,2239.381485,2239.381485,
   ** Warning ** SimHVAC: Maximum iterations (20) exceeded for all HVAC loops, at ANNUAL, 01/03 11:30 - 11:45
   **   ~~~   ** The solution for one or more of the Air Loop HVAC systems did not appear to converge
   **   ~~~   ** Air System Named = CENTRAL SYSTEM did not converge for mass flow rate
   **   ~~~   ** Check values should be zero. Most Recent values listed first.
   **   ~~~   ** Demand-to-Supply interface mass flow rate check value iteration history trace: 5.441834E-002,5.441834E-002,5.441834E-002,5.441834E-002,5.441834E-002,5.441834E-002,5.441834E-002,5.441834E-002,5.441834E-002,5.441834E-002,
   **   ~~~   ** Supply-to-demand interface deck 1 mass flow rate check value iteration history trace: 5.441834E-002,5.441834E-002,5.441834E-002,5.441834E-002,5.441834E-002,5.441834E-002,5.441834E-002,5.441834E-002,5.441834E-002,5.441834E-002,
   **   ~~~   ** Air System Named = CENTRAL SYSTEM did not converge for energy
   **   ~~~   ** Check values should be zero. Most Recent values listed first.
   **   ~~~   ** Demand-to-Supply interface energy check value iteration history trace: 1078.401064,1078.401064,1078.401063,1078.401063,1078.401063,1078.401063,1078.401063,1078.401063,1078.401063,1078.401063,
   **   ~~~   ** Supply-to-demand interface deck 1 energy check value iteration history trace: 1836.090721,1836.090721,1836.090721,1836.090721,1836.090721,1836.090721,1836.090721,1836.090721,1836.090721,1836.090720,
   ** Warning ** SimHVAC: Maximum iterations (20) exceeded for all HVAC loops, at ANNUAL, 01/16 19:38 - 19:45
   **   ~~~   ** The solution for one or more of the Air Loop HVAC systems did not appear to converge
   **   ~~~   ** Air System Named = CENTRAL SYSTEM did not converge for mass flow rate
   **   ~~~   ** Check values should be zero. Most Recent values listed first.
   **   ~~~   ** Demand-to-Supply interface mass flow rate check value iteration history trace: 3.622682E-002,3.622682E-002,3.622682E-002,3.622682E-002,3.622682E-002,3.622682E-002,3.622682E-002,3.622682E-002,3.622682E-002,3.622682E-002,
   **   ~~~   ** Supply-to-demand interface deck 1 mass flow rate check value iteration history trace: 3.622682E-002,3.622682E-002,3.622682E-002,3.622682E-002,3.622682E-002,3.622682E-002,3.622682E-002,3.622682E-002,3.622682E-002,3.622682E-002,
   **   ~~~   ** Air System Named = CENTRAL SYSTEM did not converge for energy
   **   ~~~   ** Check values should be zero. Most Recent values listed first.
   **   ~~~   ** Demand-to-Supply interface energy check value iteration history trace: 716.237324,716.237323,716.237323,716.237323,716.237323,716.237323,716.237323,716.237323,716.237323,716.237323,
   **   ~~~   ** Supply-to-demand interface deck 1 energy check value iteration history trace: 1134.296901,1134.296901,1134.296901,1134.296901,1134.296901,1134.296901,1134.296901,1134.296901,1134.296900,1134.296900,
   ** Warning ** SimHVAC: Maximum iterations (20) exceeded for all HVAC loops, at ANNUAL, 01/17 20:30 - 20:45
   **   ~~~   ** The solution for one or more of the Air Loop HVAC systems did not appear to converge
   **   ~~~   ** Air System Named = CENTRAL SYSTEM did not converge for mass flow rate
   **   ~~~   ** Check values should be zero. Most Recent values listed first.
   **   ~~~   ** Demand-to-Supply interface mass flow rate check value iteration history trace: 7.062347E-002,7.062347E-002,7.062347E-002,7.062347E-002,7.062347E-002,7.062347E-002,7.062347E-002,7.062347E-002,7.062347E-002,7.062347E-002,
   **   ~~~   ** Supply-to-demand interface deck 1 mass flow rate check value iteration history trace: 7.062347E-002,7.062347E-002,7.062347E-002,7.062347E-002,7.062347E-002,7.062347E-002,7.062347E-002,7.062347E-002,7.062347E-002,7.062347E-002,
   **   ~~~   ** Air System Named = CENTRAL SYSTEM did not converge for energy
   **   ~~~   ** Check values should be zero. Most Recent values listed first.
   **   ~~~   ** Demand-to-Supply interface energy check value iteration history trace: 1400.070491,1400.070491,1400.070491,1400.070490,1400.070490,1400.070490,1400.070490,1400.070490,1400.070490,1400.070490,
   **   ~~~   ** Supply-to-demand interface deck 1 energy check value iteration history trace: 2233.113567,2233.113567,2233.113567,2233.113567,2233.113567,2233.113567,2233.113566,2233.113566,2233.113566,2233.113566,
   ** Warning ** SimHVAC: Maximum iterations (20) exceeded for all HVAC loops, at ANNUAL, 01/25 20:20 - 20:25
   **   ~~~   ** The solution for one or more of the Air Loop HVAC systems did not appear to converge
   **   ~~~   ** Air System Named = CENTRAL SYSTEM did not converge for mass flow rate
   **   ~~~   ** Check values should be zero. Most Recent values listed first.
   **   ~~~   ** Demand-to-Supply interface mass flow rate check value iteration history trace: 6.916166E-002,6.916166E-002,6.916166E-002,6.916166E-002,6.916166E-002,6.916166E-002,6.916166E-002,6.916166E-002,6.916166E-002,6.916166E-002,
   **   ~~~   ** Supply-to-demand interface deck 1 mass flow rate check value iteration history trace: 6.916166E-002,6.916166E-002,6.916166E-002,6.916166E-002,6.916166E-002,6.916166E-002,6.916166E-002,6.916166E-002,6.916166E-002,6.916166E-002,
   **   ~~~   ** Air System Named = CENTRAL SYSTEM did not converge for energy
   **   ~~~   ** Check values should be zero. Most Recent values listed first.
   **   ~~~   ** Demand-to-Supply interface energy check value iteration history trace: 1368.369442,1368.369442,1368.369442,1368.369442,1368.369442,1368.369442,1368.369442,1368.369442,1368.369442,1368.369442,
   **   ~~~   ** Supply-to-demand interface deck 1 energy check value iteration history trace: 2148.225777,2148.225777,2148.225777,2148.225777,2148.225777,2148.225777,2148.225777,2148.225776,2148.225776,2148.225776,
   ** Warning ** SimHVAC: Maximum iterations (20) exceeded for all HVAC loops, at ANNUAL, 01/29 10:33 - 10:36
   **   ~~~   ** The solution for one or more of the Air Loop HVAC systems did not appear to converge
   **   ~~~   ** Air System Named = CENTRAL SYSTEM did not converge for mass flow rate
   **   ~~~   ** Check values should be zero. Most Recent values listed first.
   **   ~~~   ** Demand-to-Supply interface mass flow rate check value iteration history trace: 4.366496E-002,4.366496E-002,4.366496E-002,4.366496E-002,4.366496E-002,4.366496E-002,4.366496E-002,4.366496E-002,4.366496E-002,4.366496E-002,
   **   ~~~   ** Supply-to-demand interface deck 1 mass flow rate check value iteration history trace: 4.366496E-002,4.366496E-002,4.366496E-002,4.366496E-002,4.366496E-002,4.366496E-002,4.366496E-002,4.366496E-002,4.366496E-002,4.366496E-002,
   **   ~~~   ** Air System Named = CENTRAL SYSTEM did not converge for energy
   **   ~~~   ** Check values should be zero. Most Recent values listed first.
   **   ~~~   ** Demand-to-Supply interface energy check value iteration history trace: 862.332985,862.332985,862.332985,862.332985,862.332985,862.332985,862.332985,862.332985,862.332985,862.332985,
   **   ~~~   ** Supply-to-demand interface deck 1 energy check value iteration history trace: 1649.465859,1649.465859,1649.465859,1649.465859,1649.465859,1649.465859,1649.465859,1649.465859,1649.465859,1649.465859,
   ** Warning ** SimHVAC: Maximum iterations (20) exceeded for all HVAC loops, at ANNUAL, 02/15 11:15 - 11:18
   **   ~~~   ** The solution for one or more of the Air Loop HVAC systems did not appear to converge
   **   ~~~   ** Air System Named = CENTRAL SYSTEM did not converge for mass flow rate
   **   ~~~   ** Check values should be zero. Most Recent values listed first.
   **   ~~~   ** Demand-to-Supply interface mass flow rate check value iteration history trace: 4.818593E-002,4.818593E-002,4.818593E-002,4.818593E-002,4.818593E-002,4.818593E-002,4.818593E-002,4.818593E-002,4.818593E-002,4.818593E-002,
   **   ~~~   ** Supply-to-demand interface deck 1 mass flow rate check value iteration history trace: 4.818593E-002,4.818593E-002,4.818593E-002,4.818593E-002,4.818593E-002,4.818593E-002,4.818593E-002,4.818593E-002,4.818593E-002,4.818593E-002,
   **   ~~~   ** Air System Named = CENTRAL SYSTEM did not converge for energy
   **   ~~~   ** Check values should be zero. Most Recent values listed first.
   **   ~~~   ** Demand-to-Supply interface energy check value iteration history trace: 951.679005,951.679005,951.679005,951.679005,951.679004,951.679004,951.679004,951.679004,951.679004,951.679004,
   **   ~~~   ** Supply-to-demand interface deck 1 energy check value iteration history trace: 1749.303645,1749.303645,1749.303645,1749.303644,1749.303644,1749.303644,1749.303644,1749.303644,1749.303644,1749.303644,
   ** Warning ** SimHVAC: Maximum iterations (20) exceeded for all HVAC loops, at ANNUAL, 02/22 09:45 - 09:48
   **   ~~~   ** The solution for one or more of the Air Loop HVAC systems did not appear to converge
   **   ~~~   ** Air System Named = CENTRAL SYSTEM did not converge for mass flow rate
   **   ~~~   ** Check values should be zero. Most Recent values listed first.
   **   ~~~   ** Demand-to-Supply interface mass flow rate check value iteration history trace: 7.103188E-002,7.103188E-002,7.103188E-002,7.103188E-002,7.103188E-002,7.103188E-002,7.103188E-002,7.103188E-002,7.103188E-002,7.103188E-002,
   **   ~~~   ** Supply-to-demand interface deck 1 mass flow rate check value iteration history trace: 7.103188E-002,7.103188E-002,7.103188E-002,7.103188E-002,7.103188E-002,7.103188E-002,7.103188E-002,7.103188E-002,7.103188E-002,7.103188E-002,
   **   ~~~   ** Air System Named = CENTRAL SYSTEM did not converge for energy
   **   ~~~   ** Check values should be zero. Most Recent values listed first.
   **   ~~~   ** Demand-to-Supply interface energy check value iteration history trace: 1401.901429,1401.901429,1401.901429,1401.901429,1401.901429,1401.901429,1401.901429,1401.901428,1401.901428,1401.901428,
   **   ~~~   ** Supply-to-demand interface deck 1 energy check value iteration history trace: 2375.294605,2375.294605,2375.294605,2375.294605,2375.294605,2375.294605,2375.294605,2375.294604,2375.294604,2375.294604,
   ** Warning ** SimHVAC: Maximum iterations (20) exceeded for all HVAC loops, at ANNUAL, 02/27 09:15 - 09:19
   **   ~~~   ** The solution for one or more of the Air Loop HVAC systems did not appear to converge
   **   ~~~   ** Air System Named = CENTRAL SYSTEM did not converge for mass flow rate
   **   ~~~   ** Check values should be zero. Most Recent values listed first.
   **   ~~~   ** Demand-to-Supply interface mass flow rate check value iteration history trace: 5.103716E-002,5.103716E-002,5.103716E-002,5.103716E-002,5.103716E-002,5.103716E-002,5.103716E-002,5.103716E-002,5.103716E-002,5.103716E-002,
   **   ~~~   ** Supply-to-demand interface deck 1 mass flow rate check value iteration history trace: 5.103716E-002,5.103716E-002,5.103716E-002,5.103716E-002,5.103716E-002,5.103716E-002,5.103716E-002,5.103716E-002,5.103716E-002,5.103716E-002,
   **   ~~~   ** Air System Named = CENTRAL SYSTEM did not converge for energy
   **   ~~~   ** Check values should be zero. Most Recent values listed first.
   **   ~~~   ** Demand-to-Supply interface energy check value iteration history trace: 1011.365488,1011.365488,1011.365488,1011.365488,1011.365488,1011.365488,1011.365488,1011.365488,1011.365488,1011.365488,
   **   ~~~   ** Supply-to-demand interface deck 1 energy check value iteration history trace: 1869.815075,1869.815075,1869.815075,1869.815075,1869.815075,1869.815075,1869.815075,1869.815075,1869.815075,1869.815075,
   ** Warning ** SimHVAC: Maximum iterations (20) exceeded for all HVAC loops, at ANNUAL, 02/27 09:30 - 09:35
   **   ~~~   ** The solution for one or more of the Air Loop HVAC systems did not appear to converge
   **   ~~~   ** Air System Named = CENTRAL SYSTEM did not converge for mass flow rate
   **   ~~~   ** Check values should be zero. Most Recent values listed first.
   **   ~~~   ** Demand-to-Supply interface mass flow rate check value iteration history trace: 4.875624E-002,4.875624E-002,4.875624E-002,4.875624E-002,4.875624E-002,4.875624E-002,4.875624E-002,4.875624E-002,4.875624E-002,4.875624E-002,
   **   ~~~   ** Supply-to-demand interface deck 1 mass flow rate check value iteration history trace: 4.875624E-002,4.875624E-002,4.875624E-002,4.875624E-002,4.875624E-002,4.875624E-002,4.875624E-002,4.875624E-002,4.875624E-002,4.875624E-002,
   **   ~~~   ** Air System Named = CENTRAL SYSTEM did not converge for energy
   **   ~~~   ** Check values should be zero. Most Recent values listed first.
   **   ~~~   ** Demand-to-Supply interface energy check value iteration history trace: 962.703853,962.703853,962.703853,962.703853,962.703853,962.703853,962.703853,962.703853,962.703853,962.703853,
   **   ~~~   ** Supply-to-demand interface deck 1 energy check value iteration history trace: 1788.664626,1788.664626,1788.664625,1788.664625,1788.664625,1788.664625,1788.664625,1788.664625,1788.664625,1788.664625,
   ** Warning ** SimHVAC: Maximum iterations (20) exceeded for all HVAC loops, at ANNUAL, 02/28 01:30 - 01:45
   **   ~~~   ** The solution for one or more of the Air Loop HVAC systems did not appear to converge
   **   ~~~   ** Air System Named = CENTRAL SYSTEM did not converge for mass flow rate
   **   ~~~   ** Check values should be zero. Most Recent values listed first.
   **   ~~~   ** Demand-to-Supply interface mass flow rate check value iteration history trace: 6.393093E-002,6.393093E-002,6.393093E-002,6.393093E-002,6.393093E-002,6.393093E-002,6.393093E-002,6.393093E-002,6.393093E-002,6.393093E-002,
   **   ~~~   ** Supply-to-demand interface deck 1 mass flow rate check value iteration history trace: 6.393093E-002,6.393093E-002,6.393093E-002,6.393093E-002,6.393093E-002,6.393093E-002,6.393093E-002,6.393093E-002,6.393093E-002,6.393093E-002,
   **   ~~~   ** Air System Named = CENTRAL SYSTEM did not converge for energy
   **   ~~~   ** Check values should be zero. Most Recent values listed first.
   **   ~~~   ** Demand-to-Supply interface energy check value iteration history trace: 1210.793168,1210.793168,1210.793168,1210.793168,1210.793168,1210.793168,1210.793168,1210.793168,1210.793168,1210.793168,
   **   ~~~   ** Supply-to-demand interface deck 1 energy check value iteration history trace: 2017.254075,2017.254075,2017.254075,2017.254075,2017.254075,2017.254075,2017.254074,2017.254074,2017.254074,2017.254074,
   ** Warning ** SimHVAC: Maximum iterations (20) exceeded for all HVAC loops, at ANNUAL, 03/01 10:00 - 10:03
   **   ~~~   ** The solution for one or more of the Air Loop HVAC systems did not appear to converge
   **   ~~~   ** Air System Named = CENTRAL SYSTEM did not converge for mass flow rate
   **   ~~~   ** Check values should be zero. Most Recent values listed first.
   **   ~~~   ** Demand-to-Supply interface mass flow rate check value iteration history trace: 5.252544E-002,5.252544E-002,5.252544E-002,5.252544E-002,5.252544E-002,5.252544E-002,5.252544E-002,5.252544E-002,5.252544E-002,5.252544E-002,
   **   ~~~   ** Supply-to-demand interface deck 1 mass flow rate check value iteration history trace: 5.252544E-002,5.252544E-002,5.252544E-002,5.252544E-002,5.252544E-002,5.252544E-002,5.252544E-002,5.252544E-002,5.252544E-002,5.252544E-002,
   **   ~~~   ** Air System Named = CENTRAL SYSTEM did not converge for energy
   **   ~~~   ** Check values should be zero. Most Recent values listed first.
   **   ~~~   ** Demand-to-Supply interface energy check value iteration history trace: 1036.951853,1036.951853,1036.951853,1036.951853,1036.951853,1036.951853,1036.951853,1036.951853,1036.951853,1036.951853,
   **   ~~~   ** Supply-to-demand interface deck 1 energy check value iteration history trace: 1909.222334,1909.222334,1909.222334,1909.222334,1909.222334,1909.222334,1909.222333,1909.222333,1909.222333,1909.222333,
   ** Warning ** Temperature out of range [-100. to 200.] (PsyPsatFnTemp)
   **   ~~~   **  Routine=PsyTwbFnTdbWPb, Environment=ANNUAL, at Simulation time=03/07 18:55 - 19:00
   **   ~~~   **  Input Temperature=-1996.28
   ************* Simulation Error Summary *************
   ** Warning ** The following Report Variables were requested but not generated -- check.rdd file
   **   ~~~   ** Either the IDF did not contain these elements, the variable name is misspelled,
   **   ~~~   ** or the requested variable is an advanced output which requires Output : Diagnostics, DisplayAdvancedReportVariables;
   ************* Key=*, VarName=BASEBOARD TOTAL HEATING ENERGY, Frequency=
   ************* Key=*, VarName=WATER HEATER NATURALGAS ENERGY, Frequency=
   ************* Key=*, VarName=COOLING COIL TOTAL HEATING ENERGY, Frequency=
   ************* There are 34 unused schedules in input.
   ************* There are 388 unused week schedules in input.
   ************* There are 397 unused day schedules in input.
   ************* Use Output:Diagnostics,DisplayUnusedSchedules; to see them.
   *************
   ************* ===== Recurring Error Summary =====
   ************* The following recurring error messages occurred.
   *************
   *************  ** Warning ** "TOTAL HOT WATER LOAD" - Target water temperature should be less than or equal to the hot water temperature error continues...
   *************  **   ~~~   **   This error occurred 131093 total times;
   *************  **   ~~~   **   during Warmup 0 times;
   *************  **   ~~~   **   during Sizing 0 times.
   *************  **   ~~~   **   Max=9.588053  Min=1.113443E-003
   *************
   *************  ** Warning ** SimHVAC: Exceeding Maximum iterations for all HVAC loops, during ANNUAL continues
   *************  **   ~~~   **   This error occurred 16 total times;
   *************  **   ~~~   **   during Warmup 0 times;
   *************  **   ~~~   **   during Sizing 0 times.
   *************
   *************  ** Warning ** Temperature out of range [-100. to 200.] (PsyPsatFnTemp)
   *************  **   ~~~   **   This error occurred 3 total times;
   *************  **   ~~~   **   during Warmup 0 times;
   *************  **   ~~~   **   during Sizing 0 times.
   *************  **   ~~~   **   Max=-139.868759 C  Min=-1996.281799 C
   *************
   *************
   ************* ===== Final Error Summary =====
   ************* The following error categories occurred.  Consider correcting or noting.
   ************* Nominally Unused Constructions
   ************* ..The nominally unused constructions warning is provided to alert you to potential conditions that can cause
   ************* ..extra time during simulation. Each construction is calculated by the algorithm indicated in the HeatBalanceAlgorithm
   ************* ..object. You may remove the constructions indicated (when you use the DisplayExtraWarnings option).
   *************
   ************* EnergyPlus Warmup Error Summary. During Warmup: 1 Warning; 0 Severe Errors.
   ************* EnergyPlus Sizing Error Summary. During Sizing: 4 Warning; 0 Severe Errors.
   ************* EnergyPlus Completed Successfully-- 131145 Warning; 0 Severe Errors; Elapsed Time=00hr 01min 52.13sec
