Program Version,EnergyPlus, Version 22.2.0-c249759bad, YMD=2023.09.01 15:02,
   ************* Beginning Zone Sizing Calculations
   ** Warning ** ProcessScheduleInput: Schedule:Constant="ALWAYS ON DISCRETE", Schedule Type Limits Name="ONOFF" not found -- will not be validated
   ** Warning ** Foundation:Kiva="KIVA FOUNDATION", no Interior Horizontal Insulation Material Name defined
   **   ~~~   ** Interior Horizontal Insulation Depth will not be used.
   ** Warning ** CheckUsedConstructions: There are 15 nominally unused constructions in input.
   **   ~~~   ** Each Unused construction is shown.
   ************* Construction=INTERIOR FLOOR
   ************* Construction=INTERIOR WINDOW
   ************* Construction=EXTERIOR DOOR
   ************* Construction=INTERIOR DOOR
   ************* Construction=GABLE CONSTRUCTION
   ************* Construction=CRAWL_FLOOR
   ************* Construction=INSULATED PIPE
   ************* Construction=PLAIN PIPE
   ************* Construction=TDD PIPE
   ************* Construction=TDD DOME
   ************* Construction=TDD DIFFUSER
   ************* Construction=CRAWL WALL
   ************* Construction=CEILING-FLOOR-LAYER
   ************* Construction=SLAB CONSTRUCTION W FULL R10 INSULATION
   ************* Construction=SLAB CONSTRUCTION W FULL R5 INSULATION
   ** Warning ** GetDXCoils: Coil:Heating:DX:SingleSpeed="DX_HEATING_COIL" curve values
   **   ~~~   ** ... Defrost Energy Input Ratio Function of Temperature Curve Name = DEFROSTEIR output is not equal to 1.0 (+ or - 10%) at rated conditions.
   **   ~~~   ** ... Curve output at rated conditions = 0.152
   ************* Beginning System Sizing Calculations
   ************* Beginning Plant Sizing Calculations
   ** Warning ** Coil:WaterHeating:AirToWaterHeatPump:Wrapped "HEAT PUMP WATER HEATER EVAPORATOR": Rated air volume flow rate per watt of rated total water heating capacity is out of range
   **   ~~~   ** Min Rated Vol Flow Per Watt=[4.027E-005], Rated Vol Flow Per Watt=[1.386E-004], Max Rated Vol Flow Per Watt=[8.056E-005]. See Input-Output Reference Manual for valid range.
   ** Warning ** Water heater = WATER HEATER TANK:  Recovery Efficiency and Energy Factor could not be calculated during the test for standard ratings
   **   ~~~   ** Setpoint was never recovered and/or heater never turned on
   ** Warning ** Check input. Pump nominal power or motor efficiency is set to 0, for pump=MAINS PRESSURE
   ** Warning ** Output:Meter: invalid Key Name="ELECTRIC_RANGE:INTERIOREQUIPMENT:ELECTRICITY" - not found.
   ** Warning ** Output:Meter: invalid Key Name="ELECTRIC_DRYER:INTERIOREQUIPMENT:ELECTRICITY" - not found.
   ** Warning ** Output:Meter: invalid Key Name="HEATRECOVERY:ELECTRICITY" - not found.
   ** Warning ** Output:Meter: invalid Key Name="HEATING:NATURALGAS" - not found.
   ** Warning ** Output:Meter: invalid Key Name="WATERSYSTEMS:NATURALGAS" - not found.
   ** Warning ** Output:Meter: invalid Key Name="PROPANE:FACILITY" - not found.
   ** Warning ** Output:Meter: invalid Key Name="HEATING:PROPANE" - not found.
   ************* Testing Individual Branch Integrity
   ************* All Branches passed integrity testing
   ************* Testing Individual Supply Air Path Integrity
   ************* All Supply Air Paths passed integrity testing
   ************* Testing Individual Return Air Path Integrity
   ************* All Return Air Paths passed integrity testing
   ************* No node connection errors were found.
   ************* Beginning Simulation
   ** Warning ** AirflowNetwork::Solver::validate_distribution: Heat pump water heater is simulated along with an AirflowNetwork but is not included in the AirflowNetwork.
   ** Warning ** CalcEquipmentFlowRates: "TOTAL HOT WATER LOAD" - Target water temperature is greater than the hot water temperature by (1.64 C)
   **   ~~~   **  Environment=EXTREME_WINTER, at Simulation time=01/06 06:00 - 06:15
   **   ~~~   ** ...target water temperature     = 53.33 C
   **   ~~~   ** ...hot water temperature        = 51.70 C
   **   ~~~   ** ...Target water temperature should be less than or equal to the hot water temperature. Verify temperature setpoints and schedules.
   ** Warning ** SimHVAC: Maximum iterations (20) exceeded for all HVAC loops, at EXTREME_WINTER, 01/11 11:00 - 11:15
   **   ~~~   ** The solution for one or more of the Air Loop HVAC systems did not appear to converge
   **   ~~~   ** Air System Named = CENTRAL SYSTEM did not converge for mass flow rate
   **   ~~~   ** Check values should be zero. Most Recent values listed first.
   **   ~~~   ** Demand-to-Supply interface mass flow rate check value iteration history trace: 5.820380E-002,5.820380E-002,5.820380E-002,5.820380E-002,5.820380E-002,5.820380E-002,5.820380E-002,5.820380E-002,5.820380E-002,5.820380E-002,
   **   ~~~   ** Supply-to-demand interface deck 1 mass flow rate check value iteration history trace: 5.820380E-002,5.820380E-002,5.820380E-002,5.820380E-002,5.820380E-002,5.820380E-002,5.820380E-002,5.820380E-002,5.820380E-002,5.820380E-002,
   **   ~~~   ** Air System Named = CENTRAL SYSTEM did not converge for energy
   **   ~~~   ** Check values should be zero. Most Recent values listed first.
   **   ~~~   ** Demand-to-Supply interface energy check value iteration history trace: 1147.299141,1147.299141,1147.299141,1147.299141,1147.299141,1147.299141,1147.299141,1147.299141,1147.299141,1147.299141,
   **   ~~~   ** Supply-to-demand interface deck 1 energy check value iteration history trace: 2111.263212,2111.263212,2111.263212,2111.263212,2111.263211,2111.263211,2111.263211,2111.263211,2111.263211,2111.263211,
   ** Warning ** SimHVAC: Maximum iterations (20) exceeded for all HVAC loops, at ANNUAL, 01/22 09:00 - 09:15
   **   ~~~   ** The solution for one or more of the Air Loop HVAC systems did not appear to converge
   **   ~~~   ** Air System Named = CENTRAL SYSTEM did not converge for mass flow rate
   **   ~~~   ** Check values should be zero. Most Recent values listed first.
   **   ~~~   ** Demand-to-Supply interface mass flow rate check value iteration history trace: 7.786590E-002,7.786590E-002,7.786590E-002,7.786590E-002,7.786590E-002,7.786590E-002,7.786590E-002,7.786590E-002,7.786590E-002,7.786590E-002,
   **   ~~~   ** Supply-to-demand interface deck 1 mass flow rate check value iteration history trace: 7.786590E-002,7.786590E-002,7.786590E-002,7.786590E-002,7.786590E-002,7.786590E-002,7.786590E-002,7.786590E-002,7.786590E-002,7.786590E-002,
   **   ~~~   ** Air System Named = CENTRAL SYSTEM did not converge for energy
   **   ~~~   ** Check values should be zero. Most Recent values listed first.
   **   ~~~   ** Demand-to-Supply interface energy check value iteration history trace: 1527.226279,1527.226279,1527.226279,1527.226278,1527.226278,1527.226278,1527.226278,1527.226278,1527.226278,1527.226278,
   **   ~~~   ** Supply-to-demand interface deck 1 energy check value iteration history trace: 2807.738147,2807.738147,2807.738147,2807.738147,2807.738147,2807.738146,2807.738146,2807.738146,2807.738146,2807.738146,
   ** Warning ** SimHVAC: Maximum iterations (20) exceeded for all HVAC loops, at ANNUAL, 02/05 10:15 - 10:17
   **   ~~~   ** The solution for one or more of the Air Loop HVAC systems did not appear to converge
   **   ~~~   ** Air System Named = CENTRAL SYSTEM did not converge for mass flow rate
   **   ~~~   ** Check values should be zero. Most Recent values listed first.
   **   ~~~   ** Demand-to-Supply interface mass flow rate check value iteration history trace: 8.312056E-002,8.312056E-002,8.312056E-002,8.312056E-002,8.312056E-002,8.312056E-002,8.312056E-002,8.312056E-002,8.312056E-002,8.312056E-002,
   **   ~~~   ** Supply-to-demand interface deck 1 mass flow rate check value iteration history trace: 8.312056E-002,8.312056E-002,8.312056E-002,8.312056E-002,8.312056E-002,8.312056E-002,8.312056E-002,8.312056E-002,8.312056E-002,8.312056E-002,
   **   ~~~   ** Air System Named = CENTRAL SYSTEM did not converge for energy
   **   ~~~   ** Check values should be zero. Most Recent values listed first.
   **   ~~~   ** Demand-to-Supply interface energy check value iteration history trace: 1644.922327,1644.922327,1644.922326,1644.922326,1644.922326,1644.922326,1644.922326,1644.922326,1644.922326,1644.922326,
   **   ~~~   ** Supply-to-demand interface deck 1 energy check value iteration history trace: 2790.250762,2790.250761,2790.250761,2790.250761,2790.250761,2790.250761,2790.250761,2790.250761,2790.250760,2790.250760,
   ** Warning ** SimHVAC: Maximum iterations (20) exceeded for all HVAC loops, at ANNUAL, 03/05 09:32 - 09:35
   **   ~~~   ** The solution for one or more of the Air Loop HVAC systems did not appear to converge
   **   ~~~   ** Air System Named = CENTRAL SYSTEM did not converge for mass flow rate
   **   ~~~   ** Check values should be zero. Most Recent values listed first.
   **   ~~~   ** Demand-to-Supply interface mass flow rate check value iteration history trace: 7.439115E-002,7.439115E-002,7.439115E-002,7.439115E-002,7.439115E-002,7.439115E-002,7.439115E-002,7.439115E-002,7.439115E-002,7.439115E-002,
   **   ~~~   ** Supply-to-demand interface deck 1 mass flow rate check value iteration history trace: 7.439115E-002,7.439115E-002,7.439115E-002,7.439115E-002,7.439115E-002,7.439115E-002,7.439115E-002,7.439115E-002,7.439115E-002,7.439115E-002,
   **   ~~~   ** Air System Named = CENTRAL SYSTEM did not converge for energy
   **   ~~~   ** Check values should be zero. Most Recent values listed first.
   **   ~~~   ** Demand-to-Supply interface energy check value iteration history trace: 1467.621732,1467.621732,1467.621732,1467.621732,1467.621732,1467.621732,1467.621732,1467.621732,1467.621732,1467.621732,
   **   ~~~   ** Supply-to-demand interface deck 1 energy check value iteration history trace: 2636.703229,2636.703229,2636.703229,2636.703229,2636.703228,2636.703228,2636.703228,2636.703228,2636.703228,2636.703228,
   ** Warning ** SimHVAC: Maximum iterations (20) exceeded for all HVAC loops, at ANNUAL, 03/07 07:45 - 07:47
   **   ~~~   ** The solution for one or more of the Air Loop HVAC systems did not appear to converge
   **   ~~~   ** Air System Named = CENTRAL SYSTEM did not converge for mass flow rate
   **   ~~~   ** Check values should be zero. Most Recent values listed first.
   **   ~~~   ** Demand-to-Supply interface mass flow rate check value iteration history trace: 7.444328E-002,7.444328E-002,7.444328E-002,7.444328E-002,7.444328E-002,7.444328E-002,7.444328E-002,7.444328E-002,7.444328E-002,7.444328E-002,
   **   ~~~   ** Supply-to-demand interface deck 1 mass flow rate check value iteration history trace: 7.444328E-002,7.444328E-002,7.444328E-002,7.444328E-002,7.444328E-002,7.444328E-002,7.444328E-002,7.444328E-002,7.444328E-002,7.444328E-002,
   **   ~~~   ** Air System Named = CENTRAL SYSTEM did not converge for energy
   **   ~~~   ** Check values should be zero. Most Recent values listed first.
   **   ~~~   ** Demand-to-Supply interface energy check value iteration history trace: 1470.514222,1470.514222,1470.514222,1470.514222,1470.514222,1470.514222,1470.514222,1470.514222,1470.514222,1470.514222,
   **   ~~~   ** Supply-to-demand interface deck 1 energy check value iteration history trace: 2594.401228,2594.401228,2594.401228,2594.401228,2594.401228,2594.401228,2594.401228,2594.401228,2594.401228,2594.401227,
   ** Warning ** SimHVAC: Maximum iterations (20) exceeded for all HVAC loops, at ANNUAL, 03/08 06:15 - 06:22
   **   ~~~   ** The solution for one or more of the Air Loop HVAC systems did not appear to converge
   **   ~~~   ** Air System Named = CENTRAL SYSTEM did not converge for mass flow rate
   **   ~~~   ** Check values should be zero. Most Recent values listed first.
   **   ~~~   ** Demand-to-Supply interface mass flow rate check value iteration history trace: 3.309046E-002,3.309046E-002,3.309046E-002,3.309046E-002,3.309046E-002,3.309046E-002,3.309046E-002,3.309046E-002,3.309046E-002,3.309046E-002,
   **   ~~~   ** Supply-to-demand interface deck 1 mass flow rate check value iteration history trace: 3.309046E-002,3.309046E-002,3.309046E-002,3.309046E-002,3.309046E-002,3.309046E-002,3.309046E-002,3.309046E-002,3.309046E-002,3.309046E-002,
   **   ~~~   ** Air System Named = CENTRAL SYSTEM did not converge for energy
   **   ~~~   ** Check values should be zero. Most Recent values listed first.
   **   ~~~   ** Demand-to-Supply interface energy check value iteration history trace: 655.189812,655.189812,655.189812,655.189812,655.189812,655.189812,655.189812,655.189812,655.189812,655.189812,
   **   ~~~   ** Supply-to-demand interface deck 1 energy check value iteration history trace: 1127.682252,1127.682252,1127.682252,1127.682252,1127.682252,1127.682252,1127.682252,1127.682252,1127.682252,1127.682252,
   ** Warning ** SimHVAC: Maximum iterations (20) exceeded for all HVAC loops, at ANNUAL, 03/26 09:40 - 09:45
   **   ~~~   ** The solution for one or more of the Air Loop HVAC systems did not appear to converge
   **   ~~~   ** Air System Named = CENTRAL SYSTEM did not converge for mass flow rate
   **   ~~~   ** Check values should be zero. Most Recent values listed first.
   **   ~~~   ** Demand-to-Supply interface mass flow rate check value iteration history trace: 0.133220,0.133220,0.133220,0.133220,0.133220,0.133220,0.133220,0.133220,0.133220,0.133220,
   **   ~~~   ** Supply-to-demand interface deck 1 mass flow rate check value iteration history trace: 0.133220,0.133220,0.133220,0.133220,0.133220,0.133220,0.133220,0.133220,0.133220,0.133220,
   **   ~~~   ** Air System Named = CENTRAL SYSTEM did not converge for energy
   **   ~~~   ** Check values should be zero. Most Recent values listed first.
   **   ~~~   ** Demand-to-Supply interface energy check value iteration history trace: 3155.909169,3155.909169,3155.909170,3155.909170,3155.909170,3155.909170,3155.909171,3155.909171,3155.909171,3155.909171,
   **   ~~~   ** Supply-to-demand interface deck 1 energy check value iteration history trace: 1797.694786,1797.694786,1797.694786,1797.694787,1797.694787,1797.694787,1797.694787,1797.694787,1797.694787,1797.694787,
   ** Warning ** SimHVAC: Maximum iterations (20) exceeded for all HVAC loops, at ANNUAL, 04/09 09:30 - 09:45
   **   ~~~   ** The solution for one or more of the Air Loop HVAC systems did not appear to converge
   **   ~~~   ** Air System Named = CENTRAL SYSTEM did not converge for mass flow rate
   **   ~~~   ** Check values should be zero. Most Recent values listed first.
   **   ~~~   ** Demand-to-Supply interface mass flow rate check value iteration history trace: 0.107921,0.107921,0.107921,0.107921,0.107921,0.107921,0.107921,0.107921,0.107921,0.107921,
   **   ~~~   ** Supply-to-demand interface deck 1 mass flow rate check value iteration history trace: 0.107921,0.107921,0.107921,0.107921,0.107921,0.107921,0.107921,0.107921,0.107921,0.107921,
   **   ~~~   ** Air System Named = CENTRAL SYSTEM did not converge for energy
   **   ~~~   ** Check values should be zero. Most Recent values listed first.
   **   ~~~   ** Demand-to-Supply interface energy check value iteration history trace: 2585.066680,2585.066680,2585.066680,2585.066680,2585.066681,2585.066681,2585.066681,2585.066681,2585.066681,2585.066682,
   **   ~~~   ** Supply-to-demand interface deck 1 energy check value iteration history trace: 1419.016265,1419.016265,1419.016265,1419.016265,1419.016265,1419.016266,1419.016266,1419.016266,1419.016266,1419.016266,
   ** Warning ** SimHVAC: Maximum iterations (20) exceeded for all HVAC loops, at ANNUAL, 12/26 08:00 - 08:15
   **   ~~~   ** The solution for one or more of the Air Loop HVAC systems did not appear to converge
   **   ~~~   ** Air System Named = CENTRAL SYSTEM did not converge for mass flow rate
   **   ~~~   ** Check values should be zero. Most Recent values listed first.
   **   ~~~   ** Demand-to-Supply interface mass flow rate check value iteration history trace: 5.525915E-002,5.525915E-002,5.525915E-002,5.525915E-002,5.525915E-002,5.525915E-002,5.525915E-002,5.525915E-002,5.525915E-002,5.525915E-002,
   **   ~~~   ** Supply-to-demand interface deck 1 mass flow rate check value iteration history trace: 5.525915E-002,5.525915E-002,5.525915E-002,5.525915E-002,5.525915E-002,5.525915E-002,5.525915E-002,5.525915E-002,5.525915E-002,5.525915E-002,
   **   ~~~   ** Air System Named = CENTRAL SYSTEM did not converge for energy
   **   ~~~   ** Check values should be zero. Most Recent values listed first.
   **   ~~~   ** Demand-to-Supply interface energy check value iteration history trace: 1090.508289,1090.508289,1090.508289,1090.508289,1090.508289,1090.508289,1090.508289,1090.508289,1090.508289,1090.508289,
   **   ~~~   ** Supply-to-demand interface deck 1 energy check value iteration history trace: 2002.633019,2002.633019,2002.633019,2002.633019,2002.633019,2002.633018,2002.633018,2002.633018,2002.633018,2002.633018,
   ************* Simulation Error Summary *************
   ** Warning ** The following Report Variables were requested but not generated -- check.rdd file
   **   ~~~   ** Either the IDF did not contain these elements, the variable name is misspelled,
   **   ~~~   ** or the requested variable is an advanced output which requires Output : Diagnostics, DisplayAdvancedReportVariables;
   ************* Key=*, VarName=BASEBOARD TOTAL HEATING ENERGY, Frequency=
   ************* Key=*, VarName=WATER HEATER NATURALGAS ENERGY, Frequency=
   ************* Key=*, VarName=COOLING COIL TOTAL HEATING ENERGY, Frequency=
   ************* There are 34 unused schedules in input.
   ************* There are 388 unused week schedules in input.
   ************* There are 396 unused day schedules in input.
   ************* Use Output:Diagnostics,DisplayUnusedSchedules; to see them.
   *************
   ************* ===== Recurring Error Summary =====
   ************* The following recurring error messages occurred.
   *************
   *************  ** Warning ** "TOTAL HOT WATER LOAD" - Target water temperature should be less than or equal to the hot water temperature error continues...
   *************  **   ~~~   **   This error occurred 119543 total times;
   *************  **   ~~~   **   during Warmup 0 times;
   *************  **   ~~~   **   during Sizing 0 times.
   *************  **   ~~~   **   Max=7.983548  Min=1.830070E-004
   *************
   *************
   ************* ===== Final Error Summary =====
   ************* The following error categories occurred.  Consider correcting or noting.
   ************* Nominally Unused Constructions
   ************* ..The nominally unused constructions warning is provided to alert you to potential conditions that can cause
   ************* ..extra time during simulation. Each construction is calculated by the algorithm indicated in the HeatBalanceAlgorithm
   ************* ..object. You may remove the constructions indicated (when you use the DisplayExtraWarnings option).
   *************
   ************* EnergyPlus Warmup Error Summary. During Warmup: 1 Warning; 0 Severe Errors.
   ************* EnergyPlus Sizing Error Summary. During Sizing: 4 Warning; 0 Severe Errors.
   ************* EnergyPlus Completed Successfully-- 119569 Warning; 0 Severe Errors; Elapsed Time=00hr 05min 38.71sec
