Program Version,EnergyPlus, Version 22.2.0-c249759bad, YMD=2023.09.01 18:56,
   ************* Beginning Zone Sizing Calculations
   ** Warning ** ProcessScheduleInput: Schedule:Constant="ALWAYS ON DISCRETE", Schedule Type Limits Name="ONOFF" not found -- will not be validated
   ** Warning ** Foundation:Kiva="KIVA FOUNDATION", no Interior Horizontal Insulation Material Name defined
   **   ~~~   ** Interior Horizontal Insulation Depth will not be used.
   ** Warning ** CheckUsedConstructions: There are 15 nominally unused constructions in input.
   **   ~~~   ** Each Unused construction is shown.
   ************* Construction=INTERIOR FLOOR
   ************* Construction=INTERIOR WINDOW
   ************* Construction=EXTERIOR DOOR
   ************* Construction=INTERIOR DOOR
   ************* Construction=GABLE CONSTRUCTION
   ************* Construction=CRAWL_FLOOR
   ************* Construction=INSULATED PIPE
   ************* Construction=PLAIN PIPE
   ************* Construction=TDD PIPE
   ************* Construction=TDD DOME
   ************* Construction=TDD DIFFUSER
   ************* Construction=CRAWL WALL
   ************* Construction=CEILING-FLOOR-LAYER
   ************* Construction=SLAB CONSTRUCTION W FULL R10 INSULATION
   ************* Construction=SLAB CONSTRUCTION W FULL R5 INSULATION
   ** Warning ** GetDXCoils: Coil:Heating:DX:SingleSpeed="DX_HEATING_COIL" curve values
   **   ~~~   ** ... Defrost Energy Input Ratio Function of Temperature Curve Name = DEFROSTEIR output is not equal to 1.0 (+ or - 10%) at rated conditions.
   **   ~~~   ** ... Curve output at rated conditions = 0.152
   ************* Beginning System Sizing Calculations
   ************* Beginning Plant Sizing Calculations
   ** Warning ** SizeDXCoil Coil:Cooling:DX:SingleSpeed DX_COOLING_COIL
   **   ~~~   ** ...Gross Rated Total Cooling Capacity [W] will be limited by the maximum rated volume flow per rated total capacity ratio.
   **   ~~~   ** ...DX coil volume flow rate ( m3/s ) = 0.435202
   **   ~~~   ** ...Requested capacity ( W ) = 6727.577
   **   ~~~   ** ...Requested flow/capacity ratio ( m3/s/W ) = 6.468E-005
   **   ~~~   ** ...Maximum flow/capacity ratio ( m3/s/W ) = 6.041E-005
   **   ~~~   ** ...Adjusted capacity ( W ) = 7204.142
   ** Warning ** Coil:WaterHeating:AirToWaterHeatPump:Wrapped "HEAT PUMP WATER HEATER EVAPORATOR": Rated air volume flow rate per watt of rated total water heating capacity is out of range
   **   ~~~   ** Min Rated Vol Flow Per Watt=[4.027E-005], Rated Vol Flow Per Watt=[1.510E-004], Max Rated Vol Flow Per Watt=[8.056E-005]. See Input-Output Reference Manual for valid range.
   ************* SizeFan: : Potential issue with equipment sizing for Fan:OnOff HEAT PUMP WATER HEATER FAN
   **   ~~~   ** User-Specified Maximum Flow Rate [m3/s] = 0.22653
   **   ~~~   ** differs from Design Size Maximum Flow Rate [m3/s] = 7.55250E-002
   **   ~~~   ** This may, or may not, indicate mismatched component sizes.
   **   ~~~   ** Verify that the value entered is intended and is consistent with other components.
   ** Warning ** Water heater = WATER HEATER TANK:  Recovery Efficiency and Energy Factor could not be calculated during the test for standard ratings
   **   ~~~   ** Setpoint was never recovered and/or heater never turned on
   ** Warning ** Check input. Pump nominal power or motor efficiency is set to 0, for pump=MAINS PRESSURE
   ** Warning ** Output:Meter: invalid Key Name="ELECTRIC_RANGE:INTERIOREQUIPMENT:ELECTRICITY" - not found.
   ** Warning ** Output:Meter: invalid Key Name="ELECTRIC_DRYER:INTERIOREQUIPMENT:ELECTRICITY" - not found.
   ** Warning ** Output:Meter: invalid Key Name="HEATRECOVERY:ELECTRICITY" - not found.
   ** Warning ** Output:Meter: invalid Key Name="HEATING:NATURALGAS" - not found.
   ** Warning ** Output:Meter: invalid Key Name="WATERSYSTEMS:NATURALGAS" - not found.
   ** Warning ** Output:Meter: invalid Key Name="PROPANE:FACILITY" - not found.
   ** Warning ** Output:Meter: invalid Key Name="HEATING:PROPANE" - not found.
   ************* Testing Individual Branch Integrity
   ************* All Branches passed integrity testing
   ************* Testing Individual Supply Air Path Integrity
   ************* All Supply Air Paths passed integrity testing
   ************* Testing Individual Return Air Path Integrity
   ************* All Return Air Paths passed integrity testing
   ************* No node connection errors were found.
   ************* Beginning Simulation
   ** Warning ** AirflowNetwork::Solver::validate_distribution: Heat pump water heater is simulated along with an AirflowNetwork but is not included in the AirflowNetwork.
   ** Warning ** CalcEquipmentFlowRates: "TOTAL HOT WATER LOAD" - Target water temperature is greater than the hot water temperature by (1.61 C)
   **   ~~~   **  Environment=EXTREME_WINTER, at Simulation time=02/05 03:45 - 04:00
   **   ~~~   ** ...target water temperature     = 53.33 C
   **   ~~~   ** ...hot water temperature        = 51.72 C
   **   ~~~   ** ...Target water temperature should be less than or equal to the hot water temperature. Verify temperature setpoints and schedules.
   ** Warning ** SimHVAC: Maximum iterations (20) exceeded for all HVAC loops, at EXTREME_SUMMER, 07/26 01:15 - 01:30
   **   ~~~   ** The solution for one or more of the Air Loop HVAC systems did not appear to converge
   **   ~~~   ** Air System Named = CENTRAL SYSTEM did not converge for mass flow rate
   **   ~~~   ** Check values should be zero. Most Recent values listed first.
   **   ~~~   ** Demand-to-Supply interface mass flow rate check value iteration history trace: 9.151160E-002,9.151160E-002,9.151160E-002,9.151160E-002,9.151160E-002,9.151160E-002,9.151160E-002,9.151160E-002,9.151160E-002,9.151160E-002,
   **   ~~~   ** Supply-to-demand interface deck 1 mass flow rate check value iteration history trace: 9.151160E-002,9.151160E-002,9.151160E-002,9.151160E-002,9.151160E-002,9.151160E-002,9.151160E-002,9.151160E-002,9.151160E-002,9.151160E-002,
   **   ~~~   ** Air System Named = CENTRAL SYSTEM did not converge for energy
   **   ~~~   ** Check values should be zero. Most Recent values listed first.
   **   ~~~   ** Demand-to-Supply interface energy check value iteration history trace: 2288.085882,2288.085883,2288.085884,2288.085884,2288.085885,2288.085886,2288.085886,2288.085887,2288.085888,2288.085889,
   **   ~~~   ** Supply-to-demand interface deck 1 energy check value iteration history trace: 1182.403840,1182.403840,1182.403840,1182.403841,1182.403841,1182.403842,1182.403842,1182.403842,1182.403843,1182.403843,
   ** Warning ** SimHVAC: Maximum iterations (20) exceeded for all HVAC loops, at ANNUAL, 02/14 16:15 - 16:30
   **   ~~~   ** The solution for one or more of the Air Loop HVAC systems did not appear to converge
   **   ~~~   ** Air System Named = CENTRAL SYSTEM did not converge for mass flow rate
   **   ~~~   ** Check values should be zero. Most Recent values listed first.
   **   ~~~   ** Demand-to-Supply interface mass flow rate check value iteration history trace: 5.773579E-002,5.773579E-002,5.773579E-002,5.773579E-002,5.773579E-002,5.773579E-002,5.773579E-002,5.773579E-002,5.773579E-002,5.773579E-002,
   **   ~~~   ** Supply-to-demand interface deck 1 mass flow rate check value iteration history trace: 5.773579E-002,5.773579E-002,5.773579E-002,5.773579E-002,5.773579E-002,5.773579E-002,5.773579E-002,5.773579E-002,5.773579E-002,5.773579E-002,
   **   ~~~   ** Air System Named = CENTRAL SYSTEM did not converge for energy
   **   ~~~   ** Check values should be zero. Most Recent values listed first.
   **   ~~~   ** Demand-to-Supply interface energy check value iteration history trace: 1144.622706,1144.622706,1144.622706,1144.622706,1144.622706,1144.622706,1144.622706,1144.622706,1144.622706,1144.622706,
   **   ~~~   ** Supply-to-demand interface deck 1 energy check value iteration history trace: 1750.417417,1750.417416,1750.417416,1750.417416,1750.417416,1750.417416,1750.417416,1750.417416,1750.417416,1750.417416,
   ** Warning ** SimHVAC: Maximum iterations (20) exceeded for all HVAC loops, at ANNUAL, 04/10 09:30 - 09:38
   **   ~~~   ** The solution for one or more of the Air Loop HVAC systems did not appear to converge
   **   ~~~   ** Air System Named = CENTRAL SYSTEM did not converge for mass flow rate
   **   ~~~   ** Check values should be zero. Most Recent values listed first.
   **   ~~~   ** Demand-to-Supply interface mass flow rate check value iteration history trace: 5.573285E-002,5.573285E-002,5.573285E-002,5.573285E-002,5.573285E-002,5.573285E-002,5.573285E-002,5.573285E-002,5.573285E-002,5.573285E-002,
   **   ~~~   ** Supply-to-demand interface deck 1 mass flow rate check value iteration history trace: 5.573285E-002,5.573285E-002,5.573285E-002,5.573285E-002,5.573285E-002,5.573285E-002,5.573285E-002,5.573285E-002,5.573285E-002,5.573285E-002,
   **   ~~~   ** Air System Named = CENTRAL SYSTEM did not converge for energy
   **   ~~~   ** Check values should be zero. Most Recent values listed first.
   **   ~~~   ** Demand-to-Supply interface energy check value iteration history trace: 1104.377754,1104.377754,1104.377754,1104.377754,1104.377754,1104.377753,1104.377753,1104.377753,1104.377753,1104.377753,
   **   ~~~   ** Supply-to-demand interface deck 1 energy check value iteration history trace: 1856.490453,1856.490453,1856.490453,1856.490452,1856.490452,1856.490452,1856.490451,1856.490451,1856.490451,1856.490450,
   ** Warning ** SimHVAC: Maximum iterations (20) exceeded for all HVAC loops, at ANNUAL, 04/20 19:30 - 19:45
   **   ~~~   ** The solution for one or more of the Air Loop HVAC systems did not appear to converge
   **   ~~~   ** Air System Named = CENTRAL SYSTEM did not converge for mass flow rate
   **   ~~~   ** Check values should be zero. Most Recent values listed first.
   **   ~~~   ** Demand-to-Supply interface mass flow rate check value iteration history trace: 7.068567E-002,7.068567E-002,7.068567E-002,7.068567E-002,7.068567E-002,7.068567E-002,7.068567E-002,7.068567E-002,7.068567E-002,7.068567E-002,
   **   ~~~   ** Supply-to-demand interface deck 1 mass flow rate check value iteration history trace: 7.068567E-002,7.068567E-002,7.068567E-002,7.068567E-002,7.068567E-002,7.068567E-002,7.068567E-002,7.068567E-002,7.068567E-002,7.068567E-002,
   **   ~~~   ** Air System Named = CENTRAL SYSTEM did not converge for energy
   **   ~~~   ** Check values should be zero. Most Recent values listed first.
   **   ~~~   ** Demand-to-Supply interface energy check value iteration history trace: 1402.488679,1402.488679,1402.488679,1402.488679,1402.488679,1402.488679,1402.488679,1402.488679,1402.488678,1402.488678,
   **   ~~~   ** Supply-to-demand interface deck 1 energy check value iteration history trace: 2355.461616,2355.461616,2355.461616,2355.461616,2355.461616,2355.461616,2355.461616,2355.461616,2355.461615,2355.461615,
   ** Warning ** SimHVAC: Maximum iterations (20) exceeded for all HVAC loops, at ANNUAL, 04/24 00:45 - 01:00
   **   ~~~   ** The solution for one or more of the Air Loop HVAC systems did not appear to converge
   **   ~~~   ** Air System Named = CENTRAL SYSTEM did not converge for mass flow rate
   **   ~~~   ** Check values should be zero. Most Recent values listed first.
   **   ~~~   ** Demand-to-Supply interface mass flow rate check value iteration history trace: 7.970512E-002,7.970512E-002,7.970512E-002,7.970512E-002,7.970512E-002,7.970512E-002,7.970512E-002,7.970512E-002,7.970512E-002,7.970512E-002,
   **   ~~~   ** Supply-to-demand interface deck 1 mass flow rate check value iteration history trace: 7.970512E-002,7.970512E-002,7.970512E-002,7.970512E-002,7.970512E-002,7.970512E-002,7.970512E-002,7.970512E-002,7.970512E-002,7.970512E-002,
   **   ~~~   ** Air System Named = CENTRAL SYSTEM did not converge for energy
   **   ~~~   ** Check values should be zero. Most Recent values listed first.
   **   ~~~   ** Demand-to-Supply interface energy check value iteration history trace: 1482.455193,1482.455193,1482.455193,1482.455193,1482.455193,1482.455193,1482.455193,1482.455193,1482.455193,1482.455192,
   **   ~~~   ** Supply-to-demand interface deck 1 energy check value iteration history trace: 2293.702246,2293.702246,2293.702246,2293.702246,2293.702245,2293.702245,2293.702245,2293.702245,2293.702245,2293.702245,
   ** Warning ** SimHVAC: Maximum iterations (20) exceeded for all HVAC loops, at ANNUAL, 04/29 22:45 - 23:00
   **   ~~~   ** The solution for one or more of the Air Loop HVAC systems did not appear to converge
   **   ~~~   ** Air System Named = CENTRAL SYSTEM did not converge for mass flow rate
   **   ~~~   ** Check values should be zero. Most Recent values listed first.
   **   ~~~   ** Demand-to-Supply interface mass flow rate check value iteration history trace: 5.996355E-002,5.996355E-002,5.996355E-002,5.996355E-002,5.996355E-002,5.996355E-002,5.996355E-002,5.996355E-002,5.996355E-002,5.996355E-002,
   **   ~~~   ** Supply-to-demand interface deck 1 mass flow rate check value iteration history trace: 5.996355E-002,5.996355E-002,5.996355E-002,5.996355E-002,5.996355E-002,5.996355E-002,5.996355E-002,5.996355E-002,5.996355E-002,5.996355E-002,
   **   ~~~   ** Air System Named = CENTRAL SYSTEM did not converge for energy
   **   ~~~   ** Check values should be zero. Most Recent values listed first.
   **   ~~~   ** Demand-to-Supply interface energy check value iteration history trace: 1121.390827,1121.390827,1121.390827,1121.390827,1121.390827,1121.390827,1121.390827,1121.390827,1121.390827,1121.390827,
   **   ~~~   ** Supply-to-demand interface deck 1 energy check value iteration history trace: 1962.103116,1962.103116,1962.103116,1962.103116,1962.103116,1962.103116,1962.103116,1962.103116,1962.103116,1962.103115,
   ** Warning ** SimHVAC: Maximum iterations (20) exceeded for all HVAC loops, at ANNUAL, 05/12 16:15 - 16:30
   **   ~~~   ** The solution for one or more of the Air Loop HVAC systems did not appear to converge
   **   ~~~   ** Air System Named = CENTRAL SYSTEM did not converge for mass flow rate
   **   ~~~   ** Check values should be zero. Most Recent values listed first.
   **   ~~~   ** Demand-to-Supply interface mass flow rate check value iteration history trace: 6.188170E-002,6.188170E-002,6.188170E-002,6.188170E-002,6.188170E-002,6.188170E-002,6.188170E-002,6.188170E-002,6.188170E-002,6.188170E-002,
   **   ~~~   ** Supply-to-demand interface deck 1 mass flow rate check value iteration history trace: 6.188170E-002,6.188170E-002,6.188170E-002,6.188170E-002,6.188170E-002,6.188170E-002,6.188170E-002,6.188170E-002,6.188170E-002,6.188170E-002,
   **   ~~~   ** Air System Named = CENTRAL SYSTEM did not converge for energy
   **   ~~~   ** Check values should be zero. Most Recent values listed first.
   **   ~~~   ** Demand-to-Supply interface energy check value iteration history trace: 1227.947590,1227.947590,1227.947590,1227.947590,1227.947590,1227.947590,1227.947590,1227.947589,1227.947589,1227.947589,
   **   ~~~   ** Supply-to-demand interface deck 1 energy check value iteration history trace: 2131.049859,2131.049859,2131.049858,2131.049858,2131.049858,2131.049858,2131.049858,2131.049858,2131.049858,2131.049858,
   ** Warning ** SimHVAC: Maximum iterations (20) exceeded for all HVAC loops, at ANNUAL, 06/03 06:41 - 06:45
   **   ~~~   ** The solution for one or more of the Air Loop HVAC systems did not appear to converge
   **   ~~~   ** Air System Named = CENTRAL SYSTEM did not converge for mass flow rate
   **   ~~~   ** Check values should be zero. Most Recent values listed first.
   **   ~~~   ** Demand-to-Supply interface mass flow rate check value iteration history trace: 0.235030,0.235030,0.235030,0.235030,0.235030,0.235030,0.235030,0.235030,0.235030,0.235030,
   **   ~~~   ** Supply-to-demand interface deck 1 mass flow rate check value iteration history trace: 0.235030,0.235030,0.235030,0.235030,0.235030,0.235030,0.235030,0.235030,0.235030,0.235030,
   **   ~~~   ** Air System Named = CENTRAL SYSTEM did not converge for energy
   **   ~~~   ** Check values should be zero. Most Recent values listed first.
   **   ~~~   ** Demand-to-Supply interface energy check value iteration history trace: 5645.984268,5645.984269,5645.984270,5645.984271,5645.984272,5645.984272,5645.984273,5645.984274,5645.984275,5645.984276,
   **   ~~~   ** Supply-to-demand interface deck 1 energy check value iteration history trace: 2831.710881,2831.710881,2831.710882,2831.710882,2831.710883,2831.710883,2831.710884,2831.710884,2831.710884,2831.710885,
   ** Warning ** SimHVAC: Maximum iterations (20) exceeded for all HVAC loops, at ANNUAL, 06/05 05:08 - 05:15
   **   ~~~   ** The solution for one or more of the Air Loop HVAC systems did not appear to converge
   **   ~~~   ** Air System Named = CENTRAL SYSTEM did not converge for mass flow rate
   **   ~~~   ** Check values should be zero. Most Recent values listed first.
   **   ~~~   ** Demand-to-Supply interface mass flow rate check value iteration history trace: 5.822787E-002,5.822787E-002,5.822787E-002,5.822787E-002,5.822787E-002,5.822787E-002,5.822787E-002,5.822787E-002,5.822787E-002,5.822787E-002,
   **   ~~~   ** Supply-to-demand interface deck 1 mass flow rate check value iteration history trace: 5.822787E-002,5.822787E-002,5.822787E-002,5.822787E-002,5.822787E-002,5.822787E-002,5.822787E-002,5.822787E-002,5.822787E-002,5.822787E-002,
   **   ~~~   ** Air System Named = CENTRAL SYSTEM did not converge for energy
   **   ~~~   ** Check values should be zero. Most Recent values listed first.
   **   ~~~   ** Demand-to-Supply interface energy check value iteration history trace: 1395.478027,1395.478027,1395.478027,1395.478027,1395.478027,1395.478027,1395.478028,1395.478028,1395.478028,1395.478028,
   **   ~~~   ** Supply-to-demand interface deck 1 energy check value iteration history trace: 727.806727,727.806727,727.806727,727.806727,727.806727,727.806727,727.806728,727.806728,727.806728,727.806728,
   ** Warning ** SimHVAC: Maximum iterations (20) exceeded for all HVAC loops, at ANNUAL, 06/11 00:15 - 00:30
   **   ~~~   ** The solution for one or more of the Air Loop HVAC systems did not appear to converge
   **   ~~~   ** Air System Named = CENTRAL SYSTEM did not converge for mass flow rate
   **   ~~~   ** Check values should be zero. Most Recent values listed first.
   **   ~~~   ** Demand-to-Supply interface mass flow rate check value iteration history trace: 7.312698E-002,7.312698E-002,7.312698E-002,7.312698E-002,7.312698E-002,7.312698E-002,7.312698E-002,7.312698E-002,7.312698E-002,7.312698E-002,
   **   ~~~   ** Supply-to-demand interface deck 1 mass flow rate check value iteration history trace: 7.312698E-002,7.312698E-002,7.312698E-002,7.312698E-002,7.312698E-002,7.312698E-002,7.312698E-002,7.312698E-002,7.312698E-002,7.312698E-002,
   **   ~~~   ** Air System Named = CENTRAL SYSTEM did not converge for energy
   **   ~~~   ** Check values should be zero. Most Recent values listed first.
   **   ~~~   ** Demand-to-Supply interface energy check value iteration history trace: 1824.897827,1824.897828,1824.897828,1824.897829,1824.897829,1824.897830,1824.897830,1824.897830,1824.897831,1824.897831,
   **   ~~~   ** Supply-to-demand interface deck 1 energy check value iteration history trace: 850.608359,850.608359,850.608359,850.608360,850.608360,850.608360,850.608360,850.608360,850.608361,850.608361,
   ** Warning ** SimHVAC: Maximum iterations (20) exceeded for all HVAC loops, at ANNUAL, 06/14 18:00 - 18:08
   **   ~~~   ** The solution for one or more of the Air Loop HVAC systems did not appear to converge
   **   ~~~   ** Air System Named = CENTRAL SYSTEM did not converge for mass flow rate
   **   ~~~   ** Check values should be zero. Most Recent values listed first.
   **   ~~~   ** Demand-to-Supply interface mass flow rate check value iteration history trace: 0.212090,0.212090,0.212090,0.212090,0.212090,0.212090,0.212090,0.212090,0.212090,0.212090,
   **   ~~~   ** Supply-to-demand interface deck 1 mass flow rate check value iteration history trace: 0.212090,0.212090,0.212090,0.212090,0.212090,0.212090,0.212090,0.212090,0.212090,0.212090,
   **   ~~~   ** Air System Named = CENTRAL SYSTEM did not converge for energy
   **   ~~~   ** Check values should be zero. Most Recent values listed first.
   **   ~~~   ** Demand-to-Supply interface energy check value iteration history trace: 5069.832257,5069.832257,5069.832257,5069.832258,5069.832258,5069.832258,5069.832259,5069.832259,5069.832260,5069.832260,
   **   ~~~   ** Supply-to-demand interface deck 1 energy check value iteration history trace: 2805.688782,2805.688782,2805.688782,2805.688782,2805.688783,2805.688783,2805.688783,2805.688783,2805.688783,2805.688784,
   ** Warning ** SimHVAC: Maximum iterations (20) exceeded for all HVAC loops, at ANNUAL, 06/16 06:00 - 06:15
   **   ~~~   ** The solution for one or more of the Air Loop HVAC systems did not appear to converge
   **   ~~~   ** Air System Named = CENTRAL SYSTEM did not converge for mass flow rate
   **   ~~~   ** Check values should be zero. Most Recent values listed first.
   **   ~~~   ** Demand-to-Supply interface mass flow rate check value iteration history trace: 0.169048,0.169048,0.169048,0.169048,0.169048,0.169048,0.169048,0.169048,0.169048,0.169048,
   **   ~~~   ** Supply-to-demand interface deck 1 mass flow rate check value iteration history trace: 0.169048,0.169048,0.169048,0.169048,0.169048,0.169048,0.169048,0.169048,0.169048,0.169048,
   **   ~~~   ** Air System Named = CENTRAL SYSTEM did not converge for energy
   **   ~~~   ** Check values should be zero. Most Recent values listed first.
   **   ~~~   ** Demand-to-Supply interface energy check value iteration history trace: 4070.101301,4070.101302,4070.101302,4070.101303,4070.101303,4070.101303,4070.101304,4070.101304,4070.101305,4070.101305,
   **   ~~~   ** Supply-to-demand interface deck 1 energy check value iteration history trace: 2116.115529,2116.115529,2116.115529,2116.115529,2116.115530,2116.115530,2116.115530,2116.115530,2116.115531,2116.115531,
   ** Warning ** SimHVAC: Maximum iterations (20) exceeded for all HVAC loops, at ANNUAL, 10/02 16:23 - 16:30
   **   ~~~   ** The solution for one or more of the Air Loop HVAC systems did not appear to converge
   **   ~~~   ** Air System Named = CENTRAL SYSTEM did not converge for energy
   **   ~~~   ** Check values should be zero. Most Recent values listed first.
   **   ~~~   ** Demand-to-Supply interface energy check value iteration history trace: 54.539300,54.539300,54.539300,54.539300,54.539300,54.539300,54.539300,54.539300,54.539300,54.539300,
   **   ~~~   ** Supply-to-demand interface deck 1 energy check value iteration history trace: 22.649849,22.649849,22.649849,22.649849,22.649849,22.649849,22.649849,22.649849,22.649849,22.649849,
   ** Warning ** SimHVAC: Maximum iterations (20) exceeded for all HVAC loops, at ANNUAL, 10/08 13:23 - 13:30
   **   ~~~   ** The solution for one or more of the Air Loop HVAC systems did not appear to converge
   **   ~~~   ** Air System Named = CENTRAL SYSTEM did not converge for mass flow rate
   **   ~~~   ** Check values should be zero. Most Recent values listed first.
   **   ~~~   ** Demand-to-Supply interface mass flow rate check value iteration history trace: 5.295344E-002,5.295344E-002,5.295344E-002,5.295344E-002,5.295344E-002,5.295344E-002,5.295344E-002,5.295344E-002,5.295344E-002,5.295344E-002,
   **   ~~~   ** Supply-to-demand interface deck 1 mass flow rate check value iteration history trace: 5.295344E-002,5.295344E-002,5.295344E-002,5.295344E-002,5.295344E-002,5.295344E-002,5.295344E-002,5.295344E-002,5.295344E-002,5.295344E-002,
   **   ~~~   ** Air System Named = CENTRAL SYSTEM did not converge for energy
   **   ~~~   ** Check values should be zero. Most Recent values listed first.
   **   ~~~   ** Demand-to-Supply interface energy check value iteration history trace: 1048.754787,1048.754787,1048.754787,1048.754787,1048.754787,1048.754787,1048.754787,1048.754787,1048.754787,1048.754787,
   **   ~~~   ** Supply-to-demand interface deck 1 energy check value iteration history trace: 1857.932972,1857.932972,1857.932971,1857.932971,1857.932971,1857.932971,1857.932971,1857.932971,1857.932971,1857.932971,
   ** Warning ** Temperature out of range [-100. to 200.] (PsyPsatFnTemp)
   **   ~~~   **  Routine=PsyTwbFnTdbWPb, Environment=ANNUAL, at Simulation time=11/18 02:30 - 02:45
   **   ~~~   **  Input Temperature=-174.10
   ************* Simulation Error Summary *************
   ** Warning ** The following Report Variables were requested but not generated -- check.rdd file
   **   ~~~   ** Either the IDF did not contain these elements, the variable name is misspelled,
   **   ~~~   ** or the requested variable is an advanced output which requires Output : Diagnostics, DisplayAdvancedReportVariables;
   ************* Key=*, VarName=BASEBOARD TOTAL HEATING ENERGY, Frequency=
   ************* Key=*, VarName=WATER HEATER NATURALGAS ENERGY, Frequency=
   ************* Key=*, VarName=COOLING COIL TOTAL HEATING ENERGY, Frequency=
   ************* There are 34 unused schedules in input.
   ************* There are 388 unused week schedules in input.
   ************* There are 396 unused day schedules in input.
   ************* Use Output:Diagnostics,DisplayUnusedSchedules; to see them.
   *************
   ************* ===== Recurring Error Summary =====
   ************* The following recurring error messages occurred.
   *************
   *************  ** Warning ** "TOTAL HOT WATER LOAD" - Target water temperature should be less than or equal to the hot water temperature error continues...
   *************  **   ~~~   **   This error occurred 48897 total times;
   *************  **   ~~~   **   during Warmup 0 times;
   *************  **   ~~~   **   during Sizing 0 times.
   *************  **   ~~~   **   Max=6.508294  Min=1.496132E-003
   *************
   *************  ** Warning ** SimHVAC: Exceeding Maximum iterations for all HVAC loops, during ANNUAL continues
   *************  **   ~~~   **   This error occurred 2 total times;
   *************  **   ~~~   **   during Warmup 0 times;
   *************  **   ~~~   **   during Sizing 0 times.
   *************
   *************  ** Warning ** Temperature out of range [-100. to 200.] (PsyPsatFnTemp)
   *************  **   ~~~   **   This error occurred 1 total times;
   *************  **   ~~~   **   during Warmup 0 times;
   *************  **   ~~~   **   during Sizing 0 times.
   *************  **   ~~~   **   Max=-174.105957 C  Min=-174.105957 C
   *************
   *************
   ************* ===== Final Error Summary =====
   ************* The following error categories occurred.  Consider correcting or noting.
   ************* Nominally Unused Constructions
   ************* ..The nominally unused constructions warning is provided to alert you to potential conditions that can cause
   ************* ..extra time during simulation. Each construction is calculated by the algorithm indicated in the HeatBalanceAlgorithm
   ************* ..object. You may remove the constructions indicated (when you use the DisplayExtraWarnings option).
   *************
   ************* EnergyPlus Warmup Error Summary. During Warmup: 1 Warning; 0 Severe Errors.
   ************* EnergyPlus Sizing Error Summary. During Sizing: 4 Warning; 0 Severe Errors.
   ************* EnergyPlus Completed Successfully-- 48932 Warning; 0 Severe Errors; Elapsed Time=00hr 01min 25.56sec
