Program Version,EnergyPlus, Version 22.2.0-c249759bad, YMD=2023.09.01 19:49,
   ************* Beginning Zone Sizing Calculations
   ** Warning ** ProcessScheduleInput: Schedule:Constant="ALWAYS ON DISCRETE", Schedule Type Limits Name="ONOFF" not found -- will not be validated
   ** Warning ** Foundation:Kiva="KIVA FOUNDATION", no Interior Horizontal Insulation Material Name defined
   **   ~~~   ** Interior Horizontal Insulation Depth will not be used.
   ** Warning ** CheckUsedConstructions: There are 15 nominally unused constructions in input.
   **   ~~~   ** Each Unused construction is shown.
   ************* Construction=INTERIOR FLOOR
   ************* Construction=INTERIOR WINDOW
   ************* Construction=EXTERIOR DOOR
   ************* Construction=INTERIOR DOOR
   ************* Construction=GABLE CONSTRUCTION
   ************* Construction=CRAWL_FLOOR
   ************* Construction=INSULATED PIPE
   ************* Construction=PLAIN PIPE
   ************* Construction=TDD PIPE
   ************* Construction=TDD DOME
   ************* Construction=TDD DIFFUSER
   ************* Construction=CRAWL WALL
   ************* Construction=CEILING-FLOOR-LAYER
   ************* Construction=SLAB CONSTRUCTION W FULL R10 INSULATION
   ************* Construction=SLAB CONSTRUCTION W FULL R5 INSULATION
   ** Warning ** GetDXCoils: Coil:Heating:DX:SingleSpeed="DX_HEATING_COIL" curve values
   **   ~~~   ** ... Defrost Energy Input Ratio Function of Temperature Curve Name = DEFROSTEIR output is not equal to 1.0 (+ or - 10%) at rated conditions.
   **   ~~~   ** ... Curve output at rated conditions = 0.152
   ************* Beginning System Sizing Calculations
   ************* Beginning Plant Sizing Calculations
   ** Warning ** SizeDXCoil Coil:Cooling:DX:SingleSpeed DX_COOLING_COIL
   **   ~~~   ** ...Gross Rated Total Cooling Capacity [W] will be limited by the maximum rated volume flow per rated total capacity ratio.
   **   ~~~   ** ...DX coil volume flow rate ( m3/s ) = 0.399689
   **   ~~~   ** ...Requested capacity ( W ) = 6492.216
   **   ~~~   ** ...Requested flow/capacity ratio ( m3/s/W ) = 6.156E-005
   **   ~~~   ** ...Maximum flow/capacity ratio ( m3/s/W ) = 6.041E-005
   **   ~~~   ** ...Adjusted capacity ( W ) = 6616.276
   ** Warning ** Coil:WaterHeating:AirToWaterHeatPump:Wrapped "HEAT PUMP WATER HEATER EVAPORATOR": Rated air volume flow rate per watt of rated total water heating capacity is out of range
   **   ~~~   ** Min Rated Vol Flow Per Watt=[4.027E-005], Rated Vol Flow Per Watt=[1.510E-004], Max Rated Vol Flow Per Watt=[8.056E-005]. See Input-Output Reference Manual for valid range.
   ************* SizeFan: : Potential issue with equipment sizing for Fan:OnOff HEAT PUMP WATER HEATER FAN
   **   ~~~   ** User-Specified Maximum Flow Rate [m3/s] = 0.22653
   **   ~~~   ** differs from Design Size Maximum Flow Rate [m3/s] = 7.55250E-002
   **   ~~~   ** This may, or may not, indicate mismatched component sizes.
   **   ~~~   ** Verify that the value entered is intended and is consistent with other components.
   ** Warning ** Water heater = WATER HEATER TANK:  Recovery Efficiency and Energy Factor could not be calculated during the test for standard ratings
   **   ~~~   ** Setpoint was never recovered and/or heater never turned on
   ** Warning ** Check input. Pump nominal power or motor efficiency is set to 0, for pump=MAINS PRESSURE
   ** Warning ** Output:Meter: invalid Key Name="ELECTRIC_RANGE:INTERIOREQUIPMENT:ELECTRICITY" - not found.
   ** Warning ** Output:Meter: invalid Key Name="ELECTRIC_DRYER:INTERIOREQUIPMENT:ELECTRICITY" - not found.
   ** Warning ** Output:Meter: invalid Key Name="HEATRECOVERY:ELECTRICITY" - not found.
   ** Warning ** Output:Meter: invalid Key Name="HEATING:NATURALGAS" - not found.
   ** Warning ** Output:Meter: invalid Key Name="WATERSYSTEMS:NATURALGAS" - not found.
   ** Warning ** Output:Meter: invalid Key Name="PROPANE:FACILITY" - not found.
   ** Warning ** Output:Meter: invalid Key Name="HEATING:PROPANE" - not found.
   ************* Testing Individual Branch Integrity
   ************* All Branches passed integrity testing
   ************* Testing Individual Supply Air Path Integrity
   ************* All Supply Air Paths passed integrity testing
   ************* Testing Individual Return Air Path Integrity
   ************* All Return Air Paths passed integrity testing
   ************* No node connection errors were found.
   ************* Beginning Simulation
   ** Warning ** AirflowNetwork::Solver::validate_distribution: Heat pump water heater is simulated along with an AirflowNetwork but is not included in the AirflowNetwork.
   ** Warning ** CalcEquipmentFlowRates: "TOTAL HOT WATER LOAD" - Target water temperature is greater than the hot water temperature by (5.31 C)
   **   ~~~   **  Environment=EXTREME_WINTER, at Simulation time=01/20 06:00 - 06:15
   **   ~~~   ** ...target water temperature     = 53.33 C
   **   ~~~   ** ...hot water temperature        = 48.02 C
   **   ~~~   ** ...Target water temperature should be less than or equal to the hot water temperature. Verify temperature setpoints and schedules.
   ** Warning ** SimHVAC: Maximum iterations (20) exceeded for all HVAC loops, at ANNUAL, 01/09 00:00 - 00:15
   **   ~~~   ** The solution for one or more of the Air Loop HVAC systems did not appear to converge
   **   ~~~   ** Air System Named = CENTRAL SYSTEM did not converge for mass flow rate
   **   ~~~   ** Check values should be zero. Most Recent values listed first.
   **   ~~~   ** Demand-to-Supply interface mass flow rate check value iteration history trace: 1.680706E-002,1.680706E-002,1.680706E-002,1.680706E-002,1.680706E-002,1.680706E-002,1.680706E-002,1.680706E-002,1.680706E-002,1.680706E-002,
   **   ~~~   ** Supply-to-demand interface deck 1 mass flow rate check value iteration history trace: 1.680706E-002,1.680706E-002,1.680706E-002,1.680706E-002,1.680706E-002,1.680706E-002,1.680706E-002,1.680706E-002,1.680706E-002,1.680706E-002,
   **   ~~~   ** Air System Named = CENTRAL SYSTEM did not converge for energy
   **   ~~~   ** Check values should be zero. Most Recent values listed first.
   **   ~~~   ** Demand-to-Supply interface energy check value iteration history trace: 313.976430,313.976430,313.976430,313.976430,313.976430,313.976430,313.976430,313.976430,313.976430,313.976430,
   **   ~~~   ** Supply-to-demand interface deck 1 energy check value iteration history trace: 547.882700,547.882700,547.882700,547.882700,547.882700,547.882700,547.882700,547.882700,547.882700,547.882700,
   ** Warning ** SimHVAC: Maximum iterations (20) exceeded for all HVAC loops, at ANNUAL, 01/18 18:45 - 18:50
   **   ~~~   ** The solution for one or more of the Air Loop HVAC systems did not appear to converge
   **   ~~~   ** Air System Named = CENTRAL SYSTEM did not converge for mass flow rate
   **   ~~~   ** Check values should be zero. Most Recent values listed first.
   **   ~~~   ** Demand-to-Supply interface mass flow rate check value iteration history trace: 8.738727E-002,8.738727E-002,8.738727E-002,8.738727E-002,8.738727E-002,8.738727E-002,8.738727E-002,8.738727E-002,8.738727E-002,8.738727E-002,
   **   ~~~   ** Supply-to-demand interface deck 1 mass flow rate check value iteration history trace: 8.738727E-002,8.738727E-002,8.738727E-002,8.738727E-002,8.738727E-002,8.738727E-002,8.738727E-002,8.738727E-002,8.738727E-002,8.738727E-002,
   **   ~~~   ** Air System Named = CENTRAL SYSTEM did not converge for energy
   **   ~~~   ** Check values should be zero. Most Recent values listed first.
   **   ~~~   ** Demand-to-Supply interface energy check value iteration history trace: 1733.012370,1733.012369,1733.012369,1733.012369,1733.012369,1733.012369,1733.012369,1733.012369,1733.012369,1733.012369,
   **   ~~~   ** Supply-to-demand interface deck 1 energy check value iteration history trace: 2663.958528,2663.958528,2663.958528,2663.958527,2663.958527,2663.958527,2663.958527,2663.958527,2663.958526,2663.958526,
   ** Warning ** SimHVAC: Maximum iterations (20) exceeded for all HVAC loops, at ANNUAL, 03/10 09:45 - 09:47
   **   ~~~   ** The solution for one or more of the Air Loop HVAC systems did not appear to converge
   **   ~~~   ** Air System Named = CENTRAL SYSTEM did not converge for mass flow rate
   **   ~~~   ** Check values should be zero. Most Recent values listed first.
   **   ~~~   ** Demand-to-Supply interface mass flow rate check value iteration history trace: 9.798546E-002,9.798546E-002,9.798546E-002,9.798546E-002,9.798546E-002,9.798546E-002,9.798546E-002,9.798546E-002,9.798546E-002,9.798546E-002,
   **   ~~~   ** Supply-to-demand interface deck 1 mass flow rate check value iteration history trace: 9.798546E-002,9.798546E-002,9.798546E-002,9.798546E-002,9.798546E-002,9.798546E-002,9.798546E-002,9.798546E-002,9.798546E-002,9.798546E-002,
   **   ~~~   ** Air System Named = CENTRAL SYSTEM did not converge for energy
   **   ~~~   ** Check values should be zero. Most Recent values listed first.
   **   ~~~   ** Demand-to-Supply interface energy check value iteration history trace: 1941.800882,1941.800882,1941.800882,1941.800882,1941.800882,1941.800882,1941.800882,1941.800882,1941.800881,1941.800881,
   **   ~~~   ** Supply-to-demand interface deck 1 energy check value iteration history trace: 2950.965780,2950.965780,2950.965779,2950.965779,2950.965779,2950.965779,2950.965779,2950.965779,2950.965778,2950.965778,
   ** Warning ** SimHVAC: Maximum iterations (20) exceeded for all HVAC loops, at ANNUAL, 03/12 12:35 - 12:40
   **   ~~~   ** The solution for one or more of the Air Loop HVAC systems did not appear to converge
   **   ~~~   ** Air System Named = CENTRAL SYSTEM did not converge for mass flow rate
   **   ~~~   ** Check values should be zero. Most Recent values listed first.
   **   ~~~   ** Demand-to-Supply interface mass flow rate check value iteration history trace: 8.495834E-002,8.495834E-002,8.495834E-002,8.495834E-002,8.495834E-002,8.495834E-002,8.495834E-002,8.495834E-002,8.495834E-002,8.495834E-002,
   **   ~~~   ** Supply-to-demand interface deck 1 mass flow rate check value iteration history trace: 8.495834E-002,8.495834E-002,8.495834E-002,8.495834E-002,8.495834E-002,8.495834E-002,8.495834E-002,8.495834E-002,8.495834E-002,8.495834E-002,
   **   ~~~   ** Air System Named = CENTRAL SYSTEM did not converge for energy
   **   ~~~   ** Check values should be zero. Most Recent values listed first.
   **   ~~~   ** Demand-to-Supply interface energy check value iteration history trace: 1683.615582,1683.615582,1683.615582,1683.615582,1683.615582,1683.615581,1683.615581,1683.615581,1683.615581,1683.615581,
   **   ~~~   ** Supply-to-demand interface deck 1 energy check value iteration history trace: 2557.636159,2557.636159,2557.636159,2557.636158,2557.636158,2557.636158,2557.636158,2557.636158,2557.636157,2557.636157,
   ** Warning ** SimHVAC: Maximum iterations (20) exceeded for all HVAC loops, at ANNUAL, 03/18 09:17 - 09:20
   **   ~~~   ** The solution for one or more of the Air Loop HVAC systems did not appear to converge
   **   ~~~   ** Air System Named = CENTRAL SYSTEM did not converge for mass flow rate
   **   ~~~   ** Check values should be zero. Most Recent values listed first.
   **   ~~~   ** Demand-to-Supply interface mass flow rate check value iteration history trace: 7.910870E-002,7.910870E-002,7.910870E-002,7.910870E-002,7.910870E-002,7.910870E-002,7.910870E-002,7.910870E-002,7.910870E-002,7.910870E-002,
   **   ~~~   ** Supply-to-demand interface deck 1 mass flow rate check value iteration history trace: 7.910870E-002,7.910870E-002,7.910870E-002,7.910870E-002,7.910870E-002,7.910870E-002,7.910870E-002,7.910870E-002,7.910870E-002,7.910870E-002,
   **   ~~~   ** Air System Named = CENTRAL SYSTEM did not converge for energy
   **   ~~~   ** Check values should be zero. Most Recent values listed first.
   **   ~~~   ** Demand-to-Supply interface energy check value iteration history trace: 1567.742654,1567.742654,1567.742654,1567.742654,1567.742654,1567.742654,1567.742653,1567.742653,1567.742653,1567.742653,
   **   ~~~   ** Supply-to-demand interface deck 1 energy check value iteration history trace: 2702.010512,2702.010511,2702.010511,2702.010511,2702.010511,2702.010511,2702.010511,2702.010511,2702.010511,2702.010510,
   ** Warning ** SimHVAC: Maximum iterations (20) exceeded for all HVAC loops, at ANNUAL, 03/26 01:00 - 01:08
   **   ~~~   ** The solution for one or more of the Air Loop HVAC systems did not appear to converge
   **   ~~~   ** Air System Named = CENTRAL SYSTEM did not converge for mass flow rate
   **   ~~~   ** Check values should be zero. Most Recent values listed first.
   **   ~~~   ** Demand-to-Supply interface mass flow rate check value iteration history trace: 8.440238E-002,8.440238E-002,8.440238E-002,8.440238E-002,8.440238E-002,8.440238E-002,8.440238E-002,8.440238E-002,8.440238E-002,8.440238E-002,
   **   ~~~   ** Supply-to-demand interface deck 1 mass flow rate check value iteration history trace: 8.440238E-002,8.440238E-002,8.440238E-002,8.440238E-002,8.440238E-002,8.440238E-002,8.440238E-002,8.440238E-002,8.440238E-002,8.440238E-002,
   **   ~~~   ** Air System Named = CENTRAL SYSTEM did not converge for energy
   **   ~~~   ** Check values should be zero. Most Recent values listed first.
   **   ~~~   ** Demand-to-Supply interface energy check value iteration history trace: 1584.928232,1584.928232,1584.928231,1584.928231,1584.928231,1584.928231,1584.928231,1584.928231,1584.928231,1584.928231,
   **   ~~~   ** Supply-to-demand interface deck 1 energy check value iteration history trace: 2384.799940,2384.799940,2384.799940,2384.799940,2384.799940,2384.799940,2384.799939,2384.799939,2384.799939,2384.799939,
   ** Warning ** SimHVAC: Maximum iterations (20) exceeded for all HVAC loops, at ANNUAL, 03/26 19:45 - 20:00
   **   ~~~   ** The solution for one or more of the Air Loop HVAC systems did not appear to converge
   **   ~~~   ** Air System Named = CENTRAL SYSTEM did not converge for mass flow rate
   **   ~~~   ** Check values should be zero. Most Recent values listed first.
   **   ~~~   ** Demand-to-Supply interface mass flow rate check value iteration history trace: 9.545516E-002,9.545516E-002,9.545516E-002,9.545516E-002,9.545516E-002,9.545516E-002,9.545516E-002,9.545516E-002,9.545516E-002,9.545516E-002,
   **   ~~~   ** Supply-to-demand interface deck 1 mass flow rate check value iteration history trace: 9.545516E-002,9.545516E-002,9.545516E-002,9.545516E-002,9.545516E-002,9.545516E-002,9.545516E-002,9.545516E-002,9.545516E-002,9.545516E-002,
   **   ~~~   ** Air System Named = CENTRAL SYSTEM did not converge for energy
   **   ~~~   ** Check values should be zero. Most Recent values listed first.
   **   ~~~   ** Demand-to-Supply interface energy check value iteration history trace: 1888.156465,1888.156465,1888.156465,1888.156465,1888.156465,1888.156465,1888.156465,1888.156465,1888.156464,1888.156464,
   **   ~~~   ** Supply-to-demand interface deck 1 energy check value iteration history trace: 2859.289260,2859.289259,2859.289259,2859.289259,2859.289259,2859.289259,2859.289258,2859.289258,2859.289258,2859.289258,
   ** Warning ** SimHVAC: Maximum iterations (20) exceeded for all HVAC loops, at ANNUAL, 03/26 23:45 - 23:52
   **   ~~~   ** The solution for one or more of the Air Loop HVAC systems did not appear to converge
   **   ~~~   ** Air System Named = CENTRAL SYSTEM did not converge for mass flow rate
   **   ~~~   ** Check values should be zero. Most Recent values listed first.
   **   ~~~   ** Demand-to-Supply interface mass flow rate check value iteration history trace: 8.818890E-002,8.818890E-002,8.818890E-002,8.818890E-002,8.818890E-002,8.818890E-002,8.818890E-002,8.818890E-002,8.818890E-002,8.818890E-002,
   **   ~~~   ** Supply-to-demand interface deck 1 mass flow rate check value iteration history trace: 8.818890E-002,8.818890E-002,8.818890E-002,8.818890E-002,8.818890E-002,8.818890E-002,8.818890E-002,8.818890E-002,8.818890E-002,8.818890E-002,
   **   ~~~   ** Air System Named = CENTRAL SYSTEM did not converge for energy
   **   ~~~   ** Check values should be zero. Most Recent values listed first.
   **   ~~~   ** Demand-to-Supply interface energy check value iteration history trace: 1641.539153,1641.539153,1641.539153,1641.539153,1641.539153,1641.539153,1641.539152,1641.539152,1641.539152,1641.539152,
   **   ~~~   ** Supply-to-demand interface deck 1 energy check value iteration history trace: 2480.155848,2480.155848,2480.155848,2480.155848,2480.155847,2480.155847,2480.155847,2480.155847,2480.155847,2480.155847,
   ** Warning ** SimHVAC: Maximum iterations (20) exceeded for all HVAC loops, at ANNUAL, 03/27 08:30 - 08:32
   **   ~~~   ** The solution for one or more of the Air Loop HVAC systems did not appear to converge
   **   ~~~   ** Air System Named = CENTRAL SYSTEM did not converge for mass flow rate
   **   ~~~   ** Check values should be zero. Most Recent values listed first.
   **   ~~~   ** Demand-to-Supply interface mass flow rate check value iteration history trace: 8.092837E-002,8.092837E-002,8.092837E-002,8.092837E-002,8.092837E-002,8.092837E-002,8.092837E-002,8.092837E-002,8.092837E-002,8.092837E-002,
   **   ~~~   ** Supply-to-demand interface deck 1 mass flow rate check value iteration history trace: 8.092837E-002,8.092837E-002,8.092837E-002,8.092837E-002,8.092837E-002,8.092837E-002,8.092837E-002,8.092837E-002,8.092837E-002,8.092837E-002,
   **   ~~~   ** Air System Named = CENTRAL SYSTEM did not converge for energy
   **   ~~~   ** Check values should be zero. Most Recent values listed first.
   **   ~~~   ** Demand-to-Supply interface energy check value iteration history trace: 1603.726379,1603.726379,1603.726379,1603.726379,1603.726379,1603.726379,1603.726379,1603.726379,1603.726378,1603.726378,
   **   ~~~   ** Supply-to-demand interface deck 1 energy check value iteration history trace: 2671.745624,2671.745624,2671.745624,2671.745624,2671.745624,2671.745623,2671.745623,2671.745623,2671.745623,2671.745623,
   ** Warning ** SimHVAC: Maximum iterations (20) exceeded for all HVAC loops, at ANNUAL, 04/01 12:00 - 12:15
   **   ~~~   ** The solution for one or more of the Air Loop HVAC systems did not appear to converge
   **   ~~~   ** Air System Named = CENTRAL SYSTEM did not converge for mass flow rate
   **   ~~~   ** Check values should be zero. Most Recent values listed first.
   **   ~~~   ** Demand-to-Supply interface mass flow rate check value iteration history trace: 6.048445E-002,6.048445E-002,6.048445E-002,6.048445E-002,6.048445E-002,6.048445E-002,6.048445E-002,6.048445E-002,6.048445E-002,6.048445E-002,
   **   ~~~   ** Supply-to-demand interface deck 1 mass flow rate check value iteration history trace: 6.048445E-002,6.048445E-002,6.048445E-002,6.048445E-002,6.048445E-002,6.048445E-002,6.048445E-002,6.048445E-002,6.048445E-002,6.048445E-002,
   **   ~~~   ** Air System Named = CENTRAL SYSTEM did not converge for energy
   **   ~~~   ** Check values should be zero. Most Recent values listed first.
   **   ~~~   ** Demand-to-Supply interface energy check value iteration history trace: 1197.813082,1197.813082,1197.813082,1197.813082,1197.813082,1197.813082,1197.813082,1197.813082,1197.813082,1197.813082,
   **   ~~~   ** Supply-to-demand interface deck 1 energy check value iteration history trace: 2010.416313,2010.416313,2010.416313,2010.416313,2010.416313,2010.416313,2010.416312,2010.416312,2010.416312,2010.416312,
   ** Warning ** SimHVAC: Maximum iterations (20) exceeded for all HVAC loops, at ANNUAL, 04/02 10:30 - 10:33
   **   ~~~   ** The solution for one or more of the Air Loop HVAC systems did not appear to converge
   **   ~~~   ** Air System Named = CENTRAL SYSTEM did not converge for mass flow rate
   **   ~~~   ** Check values should be zero. Most Recent values listed first.
   **   ~~~   ** Demand-to-Supply interface mass flow rate check value iteration history trace: 7.624485E-002,7.624485E-002,7.624485E-002,7.624485E-002,7.624485E-002,7.624485E-002,7.624485E-002,7.624485E-002,7.624485E-002,7.624485E-002,
   **   ~~~   ** Supply-to-demand interface deck 1 mass flow rate check value iteration history trace: 7.624485E-002,7.624485E-002,7.624485E-002,7.624485E-002,7.624485E-002,7.624485E-002,7.624485E-002,7.624485E-002,7.624485E-002,7.624485E-002,
   **   ~~~   ** Air System Named = CENTRAL SYSTEM did not converge for energy
   **   ~~~   ** Check values should be zero. Most Recent values listed first.
   **   ~~~   ** Demand-to-Supply interface energy check value iteration history trace: 1510.941418,1510.941418,1510.941418,1510.941418,1510.941418,1510.941417,1510.941417,1510.941417,1510.941417,1510.941417,
   **   ~~~   ** Supply-to-demand interface deck 1 energy check value iteration history trace: 2571.136380,2571.136380,2571.136379,2571.136379,2571.136379,2571.136379,2571.136379,2571.136379,2571.136379,2571.136379,
   ** Warning ** SimHVAC: Maximum iterations (20) exceeded for all HVAC loops, at ANNUAL, 04/11 18:08 - 18:15
   **   ~~~   ** The solution for one or more of the Air Loop HVAC systems did not appear to converge
   **   ~~~   ** Air System Named = CENTRAL SYSTEM did not converge for mass flow rate
   **   ~~~   ** Check values should be zero. Most Recent values listed first.
   **   ~~~   ** Demand-to-Supply interface mass flow rate check value iteration history trace: 7.637766E-002,7.637766E-002,7.637766E-002,7.637766E-002,7.637766E-002,7.637766E-002,7.637766E-002,7.637766E-002,7.637766E-002,7.637766E-002,
   **   ~~~   ** Supply-to-demand interface deck 1 mass flow rate check value iteration history trace: 7.637766E-002,7.637766E-002,7.637766E-002,7.637766E-002,7.637766E-002,7.637766E-002,7.637766E-002,7.637766E-002,7.637766E-002,7.637766E-002,
   **   ~~~   ** Air System Named = CENTRAL SYSTEM did not converge for energy
   **   ~~~   ** Check values should be zero. Most Recent values listed first.
   **   ~~~   ** Demand-to-Supply interface energy check value iteration history trace: 1514.722119,1514.722119,1514.722119,1514.722119,1514.722119,1514.722118,1514.722118,1514.722118,1514.722118,1514.722118,
   **   ~~~   ** Supply-to-demand interface deck 1 energy check value iteration history trace: 2514.419018,2514.419018,2514.419018,2514.419018,2514.419017,2514.419017,2514.419017,2514.419017,2514.419017,2514.419017,
   ** Warning ** SimHVAC: Maximum iterations (20) exceeded for all HVAC loops, at ANNUAL, 04/18 07:50 - 07:55
   **   ~~~   ** The solution for one or more of the Air Loop HVAC systems did not appear to converge
   **   ~~~   ** Air System Named = CENTRAL SYSTEM did not converge for mass flow rate
   **   ~~~   ** Check values should be zero. Most Recent values listed first.
   **   ~~~   ** Demand-to-Supply interface mass flow rate check value iteration history trace: 6.651486E-002,6.651486E-002,6.651486E-002,6.651486E-002,6.651486E-002,6.651486E-002,6.651486E-002,6.651486E-002,6.651486E-002,6.651486E-002,
   **   ~~~   ** Supply-to-demand interface deck 1 mass flow rate check value iteration history trace: 6.651486E-002,6.651486E-002,6.651486E-002,6.651486E-002,6.651486E-002,6.651486E-002,6.651486E-002,6.651486E-002,6.651486E-002,6.651486E-002,
   **   ~~~   ** Air System Named = CENTRAL SYSTEM did not converge for energy
   **   ~~~   ** Check values should be zero. Most Recent values listed first.
   **   ~~~   ** Demand-to-Supply interface energy check value iteration history trace: 1312.711949,1312.711949,1312.711949,1312.711949,1312.711949,1312.711949,1312.711949,1312.711949,1312.711949,1312.711949,
   **   ~~~   ** Supply-to-demand interface deck 1 energy check value iteration history trace: 2330.469952,2330.469952,2330.469952,2330.469952,2330.469952,2330.469952,2330.469952,2330.469952,2330.469952,2330.469951,
   ** Warning ** SimHVAC: Maximum iterations (20) exceeded for all HVAC loops, at ANNUAL, 05/18 06:53 - 07:00
   **   ~~~   ** The solution for one or more of the Air Loop HVAC systems did not appear to converge
   **   ~~~   ** Air System Named = CENTRAL SYSTEM did not converge for mass flow rate
   **   ~~~   ** Check values should be zero. Most Recent values listed first.
   **   ~~~   ** Demand-to-Supply interface mass flow rate check value iteration history trace: 7.142503E-002,7.142503E-002,7.142503E-002,7.142503E-002,7.142503E-002,7.142503E-002,7.142503E-002,7.142503E-002,7.142503E-002,7.142503E-002,
   **   ~~~   ** Supply-to-demand interface deck 1 mass flow rate check value iteration history trace: 7.142503E-002,7.142503E-002,7.142503E-002,7.142503E-002,7.142503E-002,7.142503E-002,7.142503E-002,7.142503E-002,7.142503E-002,7.142503E-002,
   **   ~~~   ** Air System Named = CENTRAL SYSTEM did not converge for energy
   **   ~~~   ** Check values should be zero. Most Recent values listed first.
   **   ~~~   ** Demand-to-Supply interface energy check value iteration history trace: 1415.237068,1415.237068,1415.237068,1415.237068,1415.237067,1415.237067,1415.237067,1415.237067,1415.237067,1415.237067,
   **   ~~~   ** Supply-to-demand interface deck 1 energy check value iteration history trace: 2422.304454,2422.304454,2422.304454,2422.304454,2422.304454,2422.304454,2422.304454,2422.304454,2422.304453,2422.304453,
   ************* Simulation Error Summary *************
   ** Warning ** The following Report Variables were requested but not generated -- check.rdd file
   **   ~~~   ** Either the IDF did not contain these elements, the variable name is misspelled,
   **   ~~~   ** or the requested variable is an advanced output which requires Output : Diagnostics, DisplayAdvancedReportVariables;
   ************* Key=*, VarName=BASEBOARD TOTAL HEATING ENERGY, Frequency=
   ************* Key=*, VarName=WATER HEATER NATURALGAS ENERGY, Frequency=
   ************* Key=*, VarName=COOLING COIL TOTAL HEATING ENERGY, Frequency=
   ************* There are 34 unused schedules in input.
   ************* There are 388 unused week schedules in input.
   ************* There are 396 unused day schedules in input.
   ************* Use Output:Diagnostics,DisplayUnusedSchedules; to see them.
   *************
   ************* ===== Recurring Error Summary =====
   ************* The following recurring error messages occurred.
   *************
   *************  ** Warning ** "TOTAL HOT WATER LOAD" - Target water temperature should be less than or equal to the hot water temperature error continues...
   *************  **   ~~~   **   This error occurred 130753 total times;
   *************  **   ~~~   **   during Warmup 0 times;
   *************  **   ~~~   **   during Sizing 0 times.
   *************  **   ~~~   **   Max=13.61554  Min=7.832488E-004
   *************
   *************  ** Warning ** SimHVAC: Exceeding Maximum iterations for all HVAC loops, during ANNUAL continues
   *************  **   ~~~   **   This error occurred 13 total times;
   *************  **   ~~~   **   during Warmup 0 times;
   *************  **   ~~~   **   during Sizing 0 times.
   *************
   *************
   ************* ===== Final Error Summary =====
   ************* The following error categories occurred.  Consider correcting or noting.
   ************* Nominally Unused Constructions
   ************* ..The nominally unused constructions warning is provided to alert you to potential conditions that can cause
   ************* ..extra time during simulation. Each construction is calculated by the algorithm indicated in the HeatBalanceAlgorithm
   ************* ..object. You may remove the constructions indicated (when you use the DisplayExtraWarnings option).
   *************
   ************* EnergyPlus Warmup Error Summary. During Warmup: 1 Warning; 0 Severe Errors.
   ************* EnergyPlus Sizing Error Summary. During Sizing: 4 Warning; 0 Severe Errors.
   ************* EnergyPlus Completed Successfully-- 130798 Warning; 0 Severe Errors; Elapsed Time=00hr 01min 32.83sec
