Program Version,EnergyPlus, Version 22.2.0-c249759bad, YMD=2023.09.01 17:18,
   ************* Beginning Zone Sizing Calculations
   ** Warning ** ProcessScheduleInput: Schedule:Constant="ALWAYS ON DISCRETE", Schedule Type Limits Name="ONOFF" not found -- will not be validated
   ** Warning ** Foundation:Kiva="KIVA FOUNDATION", no Interior Horizontal Insulation Material Name defined
   **   ~~~   ** Interior Horizontal Insulation Depth will not be used.
   ** Warning ** CheckUsedConstructions: There are 15 nominally unused constructions in input.
   **   ~~~   ** Each Unused construction is shown.
   ************* Construction=INTERIOR FLOOR
   ************* Construction=INTERIOR WINDOW
   ************* Construction=EXTERIOR DOOR
   ************* Construction=INTERIOR DOOR
   ************* Construction=GABLE CONSTRUCTION
   ************* Construction=CRAWL_FLOOR
   ************* Construction=INSULATED PIPE
   ************* Construction=PLAIN PIPE
   ************* Construction=TDD PIPE
   ************* Construction=TDD DOME
   ************* Construction=TDD DIFFUSER
   ************* Construction=CRAWL WALL
   ************* Construction=CEILING-FLOOR-LAYER
   ************* Construction=SLAB CONSTRUCTION W FULL R10 INSULATION
   ************* Construction=SLAB CONSTRUCTION W FULL R5 INSULATION
   ** Warning ** GetDXCoils: Coil:Heating:DX:SingleSpeed="DX_HEATING_COIL" curve values
   **   ~~~   ** ... Defrost Energy Input Ratio Function of Temperature Curve Name = DEFROSTEIR output is not equal to 1.0 (+ or - 10%) at rated conditions.
   **   ~~~   ** ... Curve output at rated conditions = 0.152
   ************* Beginning System Sizing Calculations
   ************* Beginning Plant Sizing Calculations
   ** Warning ** Coil:WaterHeating:AirToWaterHeatPump:Wrapped "HEAT PUMP WATER HEATER EVAPORATOR": Rated air volume flow rate per watt of rated total water heating capacity is out of range
   **   ~~~   ** Min Rated Vol Flow Per Watt=[4.027E-005], Rated Vol Flow Per Watt=[1.510E-004], Max Rated Vol Flow Per Watt=[8.056E-005]. See Input-Output Reference Manual for valid range.
   ************* SizeFan: : Potential issue with equipment sizing for Fan:OnOff HEAT PUMP WATER HEATER FAN
   **   ~~~   ** User-Specified Maximum Flow Rate [m3/s] = 0.22653
   **   ~~~   ** differs from Design Size Maximum Flow Rate [m3/s] = 7.55250E-002
   **   ~~~   ** This may, or may not, indicate mismatched component sizes.
   **   ~~~   ** Verify that the value entered is intended and is consistent with other components.
   ** Warning ** Water heater = WATER HEATER TANK:  Recovery Efficiency and Energy Factor could not be calculated during the test for standard ratings
   **   ~~~   ** Setpoint was never recovered and/or heater never turned on
   ** Warning ** Check input. Pump nominal power or motor efficiency is set to 0, for pump=MAINS PRESSURE
   ** Warning ** Output:Meter: invalid Key Name="ELECTRIC_RANGE:INTERIOREQUIPMENT:ELECTRICITY" - not found.
   ** Warning ** Output:Meter: invalid Key Name="ELECTRIC_DRYER:INTERIOREQUIPMENT:ELECTRICITY" - not found.
   ** Warning ** Output:Meter: invalid Key Name="HEATRECOVERY:ELECTRICITY" - not found.
   ** Warning ** Output:Meter: invalid Key Name="HEATING:NATURALGAS" - not found.
   ** Warning ** Output:Meter: invalid Key Name="WATERSYSTEMS:NATURALGAS" - not found.
   ** Warning ** Output:Meter: invalid Key Name="PROPANE:FACILITY" - not found.
   ** Warning ** Output:Meter: invalid Key Name="HEATING:PROPANE" - not found.
   ************* Testing Individual Branch Integrity
   ************* All Branches passed integrity testing
   ************* Testing Individual Supply Air Path Integrity
   ************* All Supply Air Paths passed integrity testing
   ************* Testing Individual Return Air Path Integrity
   ************* All Return Air Paths passed integrity testing
   ************* No node connection errors were found.
   ************* Beginning Simulation
   ** Warning ** AirflowNetwork::Solver::validate_distribution: Heat pump water heater is simulated along with an AirflowNetwork but is not included in the AirflowNetwork.
   ** Warning ** CalcEquipmentFlowRates: "TOTAL HOT WATER LOAD" - Target water temperature is greater than the hot water temperature by (0.59 C)
   **   ~~~   **  Environment=EXTREME_WINTER, at Simulation time=01/29 06:00 - 06:15
   **   ~~~   ** ...target water temperature     = 53.33 C
   **   ~~~   ** ...hot water temperature        = 52.75 C
   **   ~~~   ** ...Target water temperature should be less than or equal to the hot water temperature. Verify temperature setpoints and schedules.
   ** Warning ** SimHVAC: Maximum iterations (20) exceeded for all HVAC loops, at ANNUAL, 01/15 10:00 - 10:15
   **   ~~~   ** The solution for one or more of the Air Loop HVAC systems did not appear to converge
   **   ~~~   ** Air System Named = CENTRAL SYSTEM did not converge for mass flow rate
   **   ~~~   ** Check values should be zero. Most Recent values listed first.
   **   ~~~   ** Demand-to-Supply interface mass flow rate check value iteration history trace: 9.887036E-002,9.887036E-002,9.887036E-002,9.887036E-002,9.887036E-002,9.887036E-002,9.887036E-002,9.887036E-002,9.887036E-002,9.887036E-002,
   **   ~~~   ** Supply-to-demand interface deck 1 mass flow rate check value iteration history trace: 9.887036E-002,9.887036E-002,9.887036E-002,9.887036E-002,9.887036E-002,9.887036E-002,9.887036E-002,9.887036E-002,9.887036E-002,9.887036E-002,
   **   ~~~   ** Air System Named = CENTRAL SYSTEM did not converge for energy
   **   ~~~   ** Check values should be zero. Most Recent values listed first.
   **   ~~~   ** Demand-to-Supply interface energy check value iteration history trace: 1959.144284,1959.144284,1959.144284,1959.144284,1959.144283,1959.144283,1959.144283,1959.144283,1959.144283,1959.144283,
   **   ~~~   ** Supply-to-demand interface deck 1 energy check value iteration history trace: 3060.854097,3060.854097,3060.854097,3060.854097,3060.854096,3060.854096,3060.854096,3060.854096,3060.854096,3060.854095,
   ** Warning ** SimHVAC: Maximum iterations (20) exceeded for all HVAC loops, at ANNUAL, 01/15 11:00 - 11:15
   **   ~~~   ** The solution for one or more of the Air Loop HVAC systems did not appear to converge
   **   ~~~   ** Air System Named = CENTRAL SYSTEM did not converge for mass flow rate
   **   ~~~   ** Check values should be zero. Most Recent values listed first.
   **   ~~~   ** Demand-to-Supply interface mass flow rate check value iteration history trace: 8.472243E-002,8.472243E-002,8.472243E-002,8.472243E-002,8.472243E-002,8.472243E-002,8.472243E-002,8.472243E-002,8.472243E-002,8.472243E-002,
   **   ~~~   ** Supply-to-demand interface deck 1 mass flow rate check value iteration history trace: 8.472243E-002,8.472243E-002,8.472243E-002,8.472243E-002,8.472243E-002,8.472243E-002,8.472243E-002,8.472243E-002,8.472243E-002,8.472243E-002,
   **   ~~~   ** Air System Named = CENTRAL SYSTEM did not converge for energy
   **   ~~~   ** Check values should be zero. Most Recent values listed first.
   **   ~~~   ** Demand-to-Supply interface energy check value iteration history trace: 1673.904664,1673.904663,1673.904663,1673.904663,1673.904663,1673.904663,1673.904663,1673.904663,1673.904663,1673.904663,
   **   ~~~   ** Supply-to-demand interface deck 1 energy check value iteration history trace: 2648.956201,2648.956201,2648.956201,2648.956201,2648.956200,2648.956200,2648.956200,2648.956200,2648.956200,2648.956200,
   ** Warning ** SimHVAC: Maximum iterations (20) exceeded for all HVAC loops, at ANNUAL, 01/26 19:15 - 19:30
   **   ~~~   ** The solution for one or more of the Air Loop HVAC systems did not appear to converge
   **   ~~~   ** Air System Named = CENTRAL SYSTEM did not converge for mass flow rate
   **   ~~~   ** Check values should be zero. Most Recent values listed first.
   **   ~~~   ** Demand-to-Supply interface mass flow rate check value iteration history trace: 6.667243E-002,6.667243E-002,6.667243E-002,6.667243E-002,6.667243E-002,6.667243E-002,6.667243E-002,6.667243E-002,6.667243E-002,6.667243E-002,
   **   ~~~   ** Supply-to-demand interface deck 1 mass flow rate check value iteration history trace: 6.667243E-002,6.667243E-002,6.667243E-002,6.667243E-002,6.667243E-002,6.667243E-002,6.667243E-002,6.667243E-002,6.667243E-002,6.667243E-002,
   **   ~~~   ** Air System Named = CENTRAL SYSTEM did not converge for energy
   **   ~~~   ** Check values should be zero. Most Recent values listed first.
   **   ~~~   ** Demand-to-Supply interface energy check value iteration history trace: 1322.752035,1322.752035,1322.752035,1322.752035,1322.752035,1322.752035,1322.752035,1322.752035,1322.752034,1322.752034,
   **   ~~~   ** Supply-to-demand interface deck 1 energy check value iteration history trace: 2268.565695,2268.565695,2268.565695,2268.565695,2268.565695,2268.565695,2268.565695,2268.565694,2268.565694,2268.565694,
   ** Warning ** SimHVAC: Maximum iterations (20) exceeded for all HVAC loops, at ANNUAL, 02/10 15:45 - 15:52
   **   ~~~   ** The solution for one or more of the Air Loop HVAC systems did not appear to converge
   **   ~~~   ** Air System Named = CENTRAL SYSTEM did not converge for mass flow rate
   **   ~~~   ** Check values should be zero. Most Recent values listed first.
   **   ~~~   ** Demand-to-Supply interface mass flow rate check value iteration history trace: 8.813003E-002,8.813003E-002,8.813003E-002,8.813003E-002,8.813003E-002,8.813003E-002,8.813003E-002,8.813003E-002,8.813003E-002,8.813003E-002,
   **   ~~~   ** Supply-to-demand interface deck 1 mass flow rate check value iteration history trace: 8.813003E-002,8.813003E-002,8.813003E-002,8.813003E-002,8.813003E-002,8.813003E-002,8.813003E-002,8.813003E-002,8.813003E-002,8.813003E-002,
   **   ~~~   ** Air System Named = CENTRAL SYSTEM did not converge for energy
   **   ~~~   ** Check values should be zero. Most Recent values listed first.
   **   ~~~   ** Demand-to-Supply interface energy check value iteration history trace: 1746.960194,1746.960194,1746.960194,1746.960194,1746.960194,1746.960194,1746.960194,1746.960193,1746.960193,1746.960193,
   **   ~~~   ** Supply-to-demand interface deck 1 energy check value iteration history trace: 2672.929401,2672.929401,2672.929401,2672.929401,2672.929400,2672.929400,2672.929400,2672.929400,2672.929400,2672.929400,
   ** Warning ** SimHVAC: Maximum iterations (20) exceeded for all HVAC loops, at ANNUAL, 02/10 16:08 - 16:15
   **   ~~~   ** The solution for one or more of the Air Loop HVAC systems did not appear to converge
   **   ~~~   ** Air System Named = CENTRAL SYSTEM did not converge for mass flow rate
   **   ~~~   ** Check values should be zero. Most Recent values listed first.
   **   ~~~   ** Demand-to-Supply interface mass flow rate check value iteration history trace: 8.628238E-002,8.628238E-002,8.628238E-002,8.628238E-002,8.628238E-002,8.628238E-002,8.628238E-002,8.628238E-002,8.628238E-002,8.628238E-002,
   **   ~~~   ** Supply-to-demand interface deck 1 mass flow rate check value iteration history trace: 8.628238E-002,8.628238E-002,8.628238E-002,8.628238E-002,8.628238E-002,8.628238E-002,8.628238E-002,8.628238E-002,8.628238E-002,8.628238E-002,
   **   ~~~   ** Air System Named = CENTRAL SYSTEM did not converge for energy
   **   ~~~   ** Check values should be zero. Most Recent values listed first.
   **   ~~~   ** Demand-to-Supply interface energy check value iteration history trace: 1703.546447,1703.546447,1703.546447,1703.546447,1703.546447,1703.546447,1703.546446,1703.546446,1703.546446,1703.546446,
   **   ~~~   ** Supply-to-demand interface deck 1 energy check value iteration history trace: 2611.671417,2611.671417,2611.671417,2611.671416,2611.671416,2611.671416,2611.671416,2611.671416,2611.671416,2611.671415,
   ** Warning ** SimHVAC: Maximum iterations (20) exceeded for all HVAC loops, at ANNUAL, 04/03 07:20 - 07:25
   **   ~~~   ** The solution for one or more of the Air Loop HVAC systems did not appear to converge
   **   ~~~   ** Air System Named = CENTRAL SYSTEM did not converge for mass flow rate
   **   ~~~   ** Check values should be zero. Most Recent values listed first.
   **   ~~~   ** Demand-to-Supply interface mass flow rate check value iteration history trace: 0.111784,0.111784,0.111784,0.111784,0.111784,0.111784,0.111784,0.111784,0.111784,0.111784,
   **   ~~~   ** Supply-to-demand interface deck 1 mass flow rate check value iteration history trace: 0.111784,0.111784,0.111784,0.111784,0.111784,0.111784,0.111784,0.111784,0.111784,0.111784,
   **   ~~~   ** Air System Named = CENTRAL SYSTEM did not converge for energy
   **   ~~~   ** Check values should be zero. Most Recent values listed first.
   **   ~~~   ** Demand-to-Supply interface energy check value iteration history trace: 2642.206583,2642.206584,2642.206585,2642.206585,2642.206586,2642.206587,2642.206587,2642.206588,2642.206589,2642.206589,
   **   ~~~   ** Supply-to-demand interface deck 1 energy check value iteration history trace: 1481.994116,1481.994117,1481.994117,1481.994117,1481.994118,1481.994118,1481.994118,1481.994119,1481.994119,1481.994120,
   ** Warning ** SimHVAC: Maximum iterations (20) exceeded for all HVAC loops, at ANNUAL, 04/04 09:23 - 09:30
   **   ~~~   ** The solution for one or more of the Air Loop HVAC systems did not appear to converge
   **   ~~~   ** Air System Named = CENTRAL SYSTEM did not converge for mass flow rate
   **   ~~~   ** Check values should be zero. Most Recent values listed first.
   **   ~~~   ** Demand-to-Supply interface mass flow rate check value iteration history trace: 0.291528,0.291528,0.291528,0.291528,0.291528,0.291528,0.291528,0.291528,0.291528,0.291528,
   **   ~~~   ** Supply-to-demand interface deck 1 mass flow rate check value iteration history trace: 0.291528,0.291528,0.291528,0.291528,0.291528,0.291528,0.291528,0.291528,0.291528,0.291528,
   **   ~~~   ** Air System Named = CENTRAL SYSTEM did not converge for energy
   **   ~~~   ** Check values should be zero. Most Recent values listed first.
   **   ~~~   ** Demand-to-Supply interface energy check value iteration history trace: 7075.019615,7075.019616,7075.019616,7075.019617,7075.019617,7075.019618,7075.019618,7075.019619,7075.019619,7075.019620,
   **   ~~~   ** Supply-to-demand interface deck 1 energy check value iteration history trace: 3827.658716,3827.658716,3827.658716,3827.658716,3827.658717,3827.658717,3827.658717,3827.658718,3827.658718,3827.658718,
   ** Warning ** SimHVAC: Maximum iterations (20) exceeded for all HVAC loops, at ANNUAL, 11/18 20:10 - 20:15
   **   ~~~   ** The solution for one or more of the Air Loop HVAC systems did not appear to converge
   **   ~~~   ** Air System Named = CENTRAL SYSTEM did not converge for mass flow rate
   **   ~~~   ** Check values should be zero. Most Recent values listed first.
   **   ~~~   ** Demand-to-Supply interface mass flow rate check value iteration history trace: 0.244391,0.244391,0.244391,0.244391,0.244391,0.244391,0.244391,0.244391,0.244391,0.244391,
   **   ~~~   ** Supply-to-demand interface deck 1 mass flow rate check value iteration history trace: 0.244391,0.244391,0.244391,0.244391,0.244391,0.244391,0.244391,0.244391,0.244391,0.244391,
   **   ~~~   ** Air System Named = CENTRAL SYSTEM did not converge for energy
   **   ~~~   ** Check values should be zero. Most Recent values listed first.
   **   ~~~   ** Demand-to-Supply interface energy check value iteration history trace: 5877.969668,5877.969669,5877.969669,5877.969669,5877.969670,5877.969670,5877.969670,5877.969671,5877.969671,5877.969671,
   **   ~~~   ** Supply-to-demand interface deck 1 energy check value iteration history trace: 2343.382150,2343.382150,2343.382150,2343.382151,2343.382151,2343.382151,2343.382151,2343.382151,2343.382151,2343.382151,
   ** Warning ** SimHVAC: Maximum iterations (20) exceeded for all HVAC loops, at ANNUAL, 11/20 14:49 - 14:52
   **   ~~~   ** The solution for one or more of the Air Loop HVAC systems did not appear to converge
   **   ~~~   ** Air System Named = CENTRAL SYSTEM did not converge for mass flow rate
   **   ~~~   ** Check values should be zero. Most Recent values listed first.
   **   ~~~   ** Demand-to-Supply interface mass flow rate check value iteration history trace: 0.333894,0.333894,0.333894,0.333894,0.333894,0.333894,0.333894,0.333894,0.333894,0.333894,
   **   ~~~   ** Supply-to-demand interface deck 1 mass flow rate check value iteration history trace: 0.333894,0.333894,0.333894,0.333894,0.333894,0.333894,0.333894,0.333894,0.333894,0.333894,
   **   ~~~   ** Air System Named = CENTRAL SYSTEM did not converge for energy
   **   ~~~   ** Check values should be zero. Most Recent values listed first.
   **   ~~~   ** Demand-to-Supply interface energy check value iteration history trace: 8026.868299,8026.868300,8026.868301,8026.868303,8026.868304,8026.868305,8026.868307,8026.868308,8026.868309,8026.868311,
   **   ~~~   ** Supply-to-demand interface deck 1 energy check value iteration history trace: 3803.469124,3803.469125,3803.469125,3803.469126,3803.469127,3803.469127,3803.469128,3803.469128,3803.469129,3803.469130,
   ** Warning ** SimHVAC: Maximum iterations (20) exceeded for all HVAC loops, at ANNUAL, 11/23 16:30 - 16:45
   **   ~~~   ** The solution for one or more of the Air Loop HVAC systems did not appear to converge
   **   ~~~   ** Air System Named = CENTRAL SYSTEM did not converge for mass flow rate
   **   ~~~   ** Check values should be zero. Most Recent values listed first.
   **   ~~~   ** Demand-to-Supply interface mass flow rate check value iteration history trace: 9.983246E-002,9.983246E-002,9.983246E-002,9.983246E-002,9.983246E-002,9.983246E-002,9.983246E-002,9.983246E-002,9.983246E-002,9.983246E-002,
   **   ~~~   ** Supply-to-demand interface deck 1 mass flow rate check value iteration history trace: 9.983246E-002,9.983246E-002,9.983246E-002,9.983246E-002,9.983246E-002,9.983246E-002,9.983246E-002,9.983246E-002,9.983246E-002,9.983246E-002,
   **   ~~~   ** Air System Named = CENTRAL SYSTEM did not converge for energy
   **   ~~~   ** Check values should be zero. Most Recent values listed first.
   **   ~~~   ** Demand-to-Supply interface energy check value iteration history trace: 2362.248372,2362.248372,2362.248372,2362.248372,2362.248373,2362.248373,2362.248373,2362.248373,2362.248373,2362.248373,
   **   ~~~   ** Supply-to-demand interface deck 1 energy check value iteration history trace: 1246.879476,1246.879477,1246.879477,1246.879477,1246.879477,1246.879477,1246.879477,1246.879477,1246.879477,1246.879477,
   ** Warning ** SimHVAC: Maximum iterations (20) exceeded for all HVAC loops, at ANNUAL, 11/24 21:23 - 21:30
   **   ~~~   ** The solution for one or more of the Air Loop HVAC systems did not appear to converge
   **   ~~~   ** Air System Named = CENTRAL SYSTEM did not converge for mass flow rate
   **   ~~~   ** Check values should be zero. Most Recent values listed first.
   **   ~~~   ** Demand-to-Supply interface mass flow rate check value iteration history trace: 0.139359,0.139359,0.139359,0.139359,0.139359,0.139359,0.139359,0.139359,0.139359,0.139359,
   **   ~~~   ** Supply-to-demand interface deck 1 mass flow rate check value iteration history trace: 0.139359,0.139359,0.139359,0.139359,0.139359,0.139359,0.139359,0.139359,0.139359,0.139359,
   **   ~~~   ** Air System Named = CENTRAL SYSTEM did not converge for energy
   **   ~~~   ** Check values should be zero. Most Recent values listed first.
   **   ~~~   ** Demand-to-Supply interface energy check value iteration history trace: 3327.184556,3327.184556,3327.184556,3327.184556,3327.184557,3327.184557,3327.184557,3327.184557,3327.184558,3327.184558,
   **   ~~~   ** Supply-to-demand interface deck 1 energy check value iteration history trace: 1383.639665,1383.639665,1383.639665,1383.639665,1383.639666,1383.639666,1383.639666,1383.639666,1383.639666,1383.639666,
   ** Warning ** SimHVAC: Maximum iterations (20) exceeded for all HVAC loops, at ANNUAL, 12/16 09:45 - 09:47
   **   ~~~   ** The solution for one or more of the Air Loop HVAC systems did not appear to converge
   **   ~~~   ** Air System Named = CENTRAL SYSTEM did not converge for mass flow rate
   **   ~~~   ** Check values should be zero. Most Recent values listed first.
   **   ~~~   ** Demand-to-Supply interface mass flow rate check value iteration history trace: 9.738807E-002,9.738807E-002,9.738807E-002,9.738807E-002,9.738807E-002,9.738807E-002,9.738807E-002,9.738807E-002,9.738807E-002,9.738807E-002,
   **   ~~~   ** Supply-to-demand interface deck 1 mass flow rate check value iteration history trace: 9.738807E-002,9.738807E-002,9.738807E-002,9.738807E-002,9.738807E-002,9.738807E-002,9.738807E-002,9.738807E-002,9.738807E-002,9.738807E-002,
   **   ~~~   ** Air System Named = CENTRAL SYSTEM did not converge for energy
   **   ~~~   ** Check values should be zero. Most Recent values listed first.
   **   ~~~   ** Demand-to-Supply interface energy check value iteration history trace: 1929.832402,1929.832402,1929.832401,1929.832401,1929.832401,1929.832401,1929.832401,1929.832401,1929.832401,1929.832400,
   **   ~~~   ** Supply-to-demand interface deck 1 energy check value iteration history trace: 2947.680107,2947.680107,2947.680106,2947.680106,2947.680106,2947.680106,2947.680106,2947.680105,2947.680105,2947.680105,
   ** Warning ** SimHVAC: Maximum iterations (20) exceeded for all HVAC loops, at ANNUAL, 12/30 09:15 - 09:30
   **   ~~~   ** The solution for one or more of the Air Loop HVAC systems did not appear to converge
   **   ~~~   ** Air System Named = CENTRAL SYSTEM did not converge for mass flow rate
   **   ~~~   ** Check values should be zero. Most Recent values listed first.
   **   ~~~   ** Demand-to-Supply interface mass flow rate check value iteration history trace: 7.502783E-002,7.502783E-002,7.502783E-002,7.502783E-002,7.502783E-002,7.502783E-002,7.502783E-002,7.502783E-002,7.502783E-002,7.502783E-002,
   **   ~~~   ** Supply-to-demand interface deck 1 mass flow rate check value iteration history trace: 7.502783E-002,7.502783E-002,7.502783E-002,7.502783E-002,7.502783E-002,7.502783E-002,7.502783E-002,7.502783E-002,7.502783E-002,7.502783E-002,
   **   ~~~   ** Air System Named = CENTRAL SYSTEM did not converge for energy
   **   ~~~   ** Check values should be zero. Most Recent values listed first.
   **   ~~~   ** Demand-to-Supply interface energy check value iteration history trace: 1486.762151,1486.762151,1486.762151,1486.762151,1486.762151,1486.762151,1486.762151,1486.762151,1486.762151,1486.762151,
   **   ~~~   ** Supply-to-demand interface deck 1 energy check value iteration history trace: 2541.152175,2541.152175,2541.152175,2541.152175,2541.152174,2541.152174,2541.152174,2541.152174,2541.152174,2541.152174,
   ************* Simulation Error Summary *************
   ** Warning ** The following Report Variables were requested but not generated -- check.rdd file
   **   ~~~   ** Either the IDF did not contain these elements, the variable name is misspelled,
   **   ~~~   ** or the requested variable is an advanced output which requires Output : Diagnostics, DisplayAdvancedReportVariables;
   ************* Key=*, VarName=BASEBOARD TOTAL HEATING ENERGY, Frequency=
   ************* Key=*, VarName=WATER HEATER NATURALGAS ENERGY, Frequency=
   ************* Key=*, VarName=COOLING COIL TOTAL HEATING ENERGY, Frequency=
   ************* There are 34 unused schedules in input.
   ************* There are 388 unused week schedules in input.
   ************* There are 396 unused day schedules in input.
   ************* Use Output:Diagnostics,DisplayUnusedSchedules; to see them.
   *************
   ************* ===== Recurring Error Summary =====
   ************* The following recurring error messages occurred.
   *************
   *************  ** Warning ** "TOTAL HOT WATER LOAD" - Target water temperature should be less than or equal to the hot water temperature error continues...
   *************  **   ~~~   **   This error occurred 148611 total times;
   *************  **   ~~~   **   during Warmup 0 times;
   *************  **   ~~~   **   during Sizing 0 times.
   *************  **   ~~~   **   Max=8.936861  Min=1.273212E-004
   *************
   *************
   ************* ===== Final Error Summary =====
   ************* The following error categories occurred.  Consider correcting or noting.
   ************* Nominally Unused Constructions
   ************* ..The nominally unused constructions warning is provided to alert you to potential conditions that can cause
   ************* ..extra time during simulation. Each construction is calculated by the algorithm indicated in the HeatBalanceAlgorithm
   ************* ..object. You may remove the constructions indicated (when you use the DisplayExtraWarnings option).
   *************
   ************* EnergyPlus Warmup Error Summary. During Warmup: 1 Warning; 0 Severe Errors.
   ************* EnergyPlus Sizing Error Summary. During Sizing: 4 Warning; 0 Severe Errors.
   ************* EnergyPlus Completed Successfully-- 148641 Warning; 0 Severe Errors; Elapsed Time=00hr 06min  7.56sec
