Program Version,EnergyPlus, Version 22.2.0-c249759bad, YMD=2023.09.01 17:18,
   ************* Beginning Zone Sizing Calculations
   ** Warning ** ProcessScheduleInput: Schedule:Constant="ALWAYS ON DISCRETE", Schedule Type Limits Name="ONOFF" not found -- will not be validated
   ** Warning ** Foundation:Kiva="KIVA FOUNDATION", no Interior Horizontal Insulation Material Name defined
   **   ~~~   ** Interior Horizontal Insulation Depth will not be used.
   ** Warning ** CheckUsedConstructions: There are 15 nominally unused constructions in input.
   **   ~~~   ** Each Unused construction is shown.
   ************* Construction=INTERIOR FLOOR
   ************* Construction=INTERIOR WINDOW
   ************* Construction=EXTERIOR DOOR
   ************* Construction=INTERIOR DOOR
   ************* Construction=GABLE CONSTRUCTION
   ************* Construction=CRAWL_FLOOR
   ************* Construction=INSULATED PIPE
   ************* Construction=PLAIN PIPE
   ************* Construction=TDD PIPE
   ************* Construction=TDD DOME
   ************* Construction=TDD DIFFUSER
   ************* Construction=CRAWL WALL
   ************* Construction=CEILING-FLOOR-LAYER
   ************* Construction=SLAB CONSTRUCTION W FULL R10 INSULATION
   ************* Construction=SLAB CONSTRUCTION W FULL R5 INSULATION
   ** Warning ** GetDXCoils: Coil:Heating:DX:SingleSpeed="DX_HEATING_COIL" curve values
   **   ~~~   ** ... Defrost Energy Input Ratio Function of Temperature Curve Name = DEFROSTEIR output is not equal to 1.0 (+ or - 10%) at rated conditions.
   **   ~~~   ** ... Curve output at rated conditions = 0.152
   ************* Beginning System Sizing Calculations
   ************* Beginning Plant Sizing Calculations
   ** Warning ** Coil:WaterHeating:AirToWaterHeatPump:Wrapped "HEAT PUMP WATER HEATER EVAPORATOR": Rated air volume flow rate per watt of rated total water heating capacity is out of range
   **   ~~~   ** Min Rated Vol Flow Per Watt=[4.027E-005], Rated Vol Flow Per Watt=[1.510E-004], Max Rated Vol Flow Per Watt=[8.056E-005]. See Input-Output Reference Manual for valid range.
   ************* SizeFan: : Potential issue with equipment sizing for Fan:OnOff HEAT PUMP WATER HEATER FAN
   **   ~~~   ** User-Specified Maximum Flow Rate [m3/s] = 0.22653
   **   ~~~   ** differs from Design Size Maximum Flow Rate [m3/s] = 7.55250E-002
   **   ~~~   ** This may, or may not, indicate mismatched component sizes.
   **   ~~~   ** Verify that the value entered is intended and is consistent with other components.
   ** Warning ** Water heater = WATER HEATER TANK:  Recovery Efficiency and Energy Factor could not be calculated during the test for standard ratings
   **   ~~~   ** Setpoint was never recovered and/or heater never turned on
   ** Warning ** Check input. Pump nominal power or motor efficiency is set to 0, for pump=MAINS PRESSURE
   ** Warning ** Output:Meter: invalid Key Name="ELECTRIC_RANGE:INTERIOREQUIPMENT:ELECTRICITY" - not found.
   ** Warning ** Output:Meter: invalid Key Name="ELECTRIC_DRYER:INTERIOREQUIPMENT:ELECTRICITY" - not found.
   ** Warning ** Output:Meter: invalid Key Name="HEATRECOVERY:ELECTRICITY" - not found.
   ** Warning ** Output:Meter: invalid Key Name="HEATING:NATURALGAS" - not found.
   ** Warning ** Output:Meter: invalid Key Name="WATERSYSTEMS:NATURALGAS" - not found.
   ** Warning ** Output:Meter: invalid Key Name="PROPANE:FACILITY" - not found.
   ** Warning ** Output:Meter: invalid Key Name="HEATING:PROPANE" - not found.
   ************* Testing Individual Branch Integrity
   ************* All Branches passed integrity testing
   ************* Testing Individual Supply Air Path Integrity
   ************* All Supply Air Paths passed integrity testing
   ************* Testing Individual Return Air Path Integrity
   ************* All Return Air Paths passed integrity testing
   ************* No node connection errors were found.
   ************* Beginning Simulation
   ** Warning ** AirflowNetwork::Solver::validate_distribution: Heat pump water heater is simulated along with an AirflowNetwork but is not included in the AirflowNetwork.
   ** Warning ** CalcEquipmentFlowRates: "TOTAL HOT WATER LOAD" - Target water temperature is greater than the hot water temperature by (0.98 C)
   **   ~~~   **  Environment=EXTREME_WINTER, at Simulation time=01/27 06:00 - 06:15
   **   ~~~   ** ...target water temperature     = 53.33 C
   **   ~~~   ** ...hot water temperature        = 52.36 C
   **   ~~~   ** ...Target water temperature should be less than or equal to the hot water temperature. Verify temperature setpoints and schedules.
   ** Warning ** SimHVAC: Maximum iterations (20) exceeded for all HVAC loops, at ANNUAL, 01/07 12:15 - 12:30
   **   ~~~   ** The solution for one or more of the Air Loop HVAC systems did not appear to converge
   **   ~~~   ** Air System Named = CENTRAL SYSTEM did not converge for mass flow rate
   **   ~~~   ** Check values should be zero. Most Recent values listed first.
   **   ~~~   ** Demand-to-Supply interface mass flow rate check value iteration history trace: 7.129513E-002,7.129513E-002,7.129513E-002,7.129513E-002,7.129513E-002,7.129513E-002,7.129513E-002,7.129513E-002,7.129513E-002,7.129513E-002,
   **   ~~~   ** Supply-to-demand interface deck 1 mass flow rate check value iteration history trace: 7.129513E-002,7.129513E-002,7.129513E-002,7.129513E-002,7.129513E-002,7.129513E-002,7.129513E-002,7.129513E-002,7.129513E-002,7.129513E-002,
   **   ~~~   ** Air System Named = CENTRAL SYSTEM did not converge for energy
   **   ~~~   ** Check values should be zero. Most Recent values listed first.
   **   ~~~   ** Demand-to-Supply interface energy check value iteration history trace: 1412.674512,1412.674512,1412.674512,1412.674512,1412.674511,1412.674511,1412.674511,1412.674511,1412.674511,1412.674511,
   **   ~~~   ** Supply-to-demand interface deck 1 energy check value iteration history trace: 2183.916173,2183.916172,2183.916172,2183.916172,2183.916172,2183.916172,2183.916172,2183.916172,2183.916171,2183.916171,
   ** Warning ** SimHVAC: Maximum iterations (20) exceeded for all HVAC loops, at ANNUAL, 01/11 16:08 - 16:15
   **   ~~~   ** The solution for one or more of the Air Loop HVAC systems did not appear to converge
   **   ~~~   ** Air System Named = CENTRAL SYSTEM did not converge for mass flow rate
   **   ~~~   ** Check values should be zero. Most Recent values listed first.
   **   ~~~   ** Demand-to-Supply interface mass flow rate check value iteration history trace: 9.065720E-002,9.065720E-002,9.065720E-002,9.065720E-002,9.065720E-002,9.065720E-002,9.065720E-002,9.065720E-002,9.065720E-002,9.065720E-002,
   **   ~~~   ** Supply-to-demand interface deck 1 mass flow rate check value iteration history trace: 9.065720E-002,9.065720E-002,9.065720E-002,9.065720E-002,9.065720E-002,9.065720E-002,9.065720E-002,9.065720E-002,9.065720E-002,9.065720E-002,
   **   ~~~   ** Air System Named = CENTRAL SYSTEM did not converge for energy
   **   ~~~   ** Check values should be zero. Most Recent values listed first.
   **   ~~~   ** Demand-to-Supply interface energy check value iteration history trace: 1795.328869,1795.328869,1795.328869,1795.328869,1795.328869,1795.328869,1795.328868,1795.328868,1795.328868,1795.328868,
   **   ~~~   ** Supply-to-demand interface deck 1 energy check value iteration history trace: 2735.007384,2735.007383,2735.007383,2735.007383,2735.007383,2735.007383,2735.007382,2735.007382,2735.007382,2735.007382,
   ** Warning ** SimHVAC: Maximum iterations (20) exceeded for all HVAC loops, at ANNUAL, 01/21 11:30 - 11:45
   **   ~~~   ** The solution for one or more of the Air Loop HVAC systems did not appear to converge
   **   ~~~   ** Air System Named = CENTRAL SYSTEM did not converge for mass flow rate
   **   ~~~   ** Check values should be zero. Most Recent values listed first.
   **   ~~~   ** Demand-to-Supply interface mass flow rate check value iteration history trace: 8.265021E-002,8.265021E-002,8.265021E-002,8.265021E-002,8.265021E-002,8.265021E-002,8.265021E-002,8.265021E-002,8.265021E-002,8.265021E-002,
   **   ~~~   ** Supply-to-demand interface deck 1 mass flow rate check value iteration history trace: 8.265021E-002,8.265021E-002,8.265021E-002,8.265021E-002,8.265021E-002,8.265021E-002,8.265021E-002,8.265021E-002,8.265021E-002,8.265021E-002,
   **   ~~~   ** Air System Named = CENTRAL SYSTEM did not converge for energy
   **   ~~~   ** Check values should be zero. Most Recent values listed first.
   **   ~~~   ** Demand-to-Supply interface energy check value iteration history trace: 1637.799328,1637.799328,1637.799328,1637.799328,1637.799327,1637.799327,1637.799327,1637.799327,1637.799327,1637.799327,
   **   ~~~   ** Supply-to-demand interface deck 1 energy check value iteration history trace: 2514.172450,2514.172450,2514.172450,2514.172450,2514.172450,2514.172449,2514.172449,2514.172449,2514.172449,2514.172449,
   ** Warning ** Temperature out of range [-100. to 200.] (PsyPsatFnTemp)
   **   ~~~   **  Routine=PsyTwbFnTdbWPb, Environment=ANNUAL, at Simulation time=02/14 12:00 - 12:03
   **   ~~~   **  Input Temperature=-323.73
   ** Warning ** SimHVAC: Maximum iterations (20) exceeded for all HVAC loops, at ANNUAL, 03/15 19:53 - 20:00
   **   ~~~   ** The solution for one or more of the Air Loop HVAC systems did not appear to converge
   **   ~~~   ** Air System Named = CENTRAL SYSTEM did not converge for mass flow rate
   **   ~~~   ** Check values should be zero. Most Recent values listed first.
   **   ~~~   ** Demand-to-Supply interface mass flow rate check value iteration history trace: 0.100937,0.100937,0.100937,0.100937,0.100937,0.100937,0.100937,0.100937,0.100937,0.100937,
   **   ~~~   ** Supply-to-demand interface deck 1 mass flow rate check value iteration history trace: 0.100937,0.100937,0.100937,0.100937,0.100937,0.100937,0.100937,0.100937,0.100937,0.100937,
   **   ~~~   ** Air System Named = CENTRAL SYSTEM did not converge for energy
   **   ~~~   ** Check values should be zero. Most Recent values listed first.
   **   ~~~   ** Demand-to-Supply interface energy check value iteration history trace: 1998.429063,1998.429063,1998.429063,1998.429063,1998.429063,1998.429063,1998.429063,1998.429062,1998.429062,1998.429062,
   **   ~~~   ** Supply-to-demand interface deck 1 energy check value iteration history trace: 3032.089767,3032.089767,3032.089766,3032.089766,3032.089766,3032.089766,3032.089766,3032.089765,3032.089765,3032.089765,
   ** Warning ** SimHVAC: Maximum iterations (20) exceeded for all HVAC loops, at ANNUAL, 03/19 11:45 - 11:52
   **   ~~~   ** The solution for one or more of the Air Loop HVAC systems did not appear to converge
   **   ~~~   ** Air System Named = CENTRAL SYSTEM did not converge for mass flow rate
   **   ~~~   ** Check values should be zero. Most Recent values listed first.
   **   ~~~   ** Demand-to-Supply interface mass flow rate check value iteration history trace: 8.429646E-002,8.429646E-002,8.429646E-002,8.429646E-002,8.429646E-002,8.429646E-002,8.429646E-002,8.429646E-002,8.429646E-002,8.429646E-002,
   **   ~~~   ** Supply-to-demand interface deck 1 mass flow rate check value iteration history trace: 8.429646E-002,8.429646E-002,8.429646E-002,8.429646E-002,8.429646E-002,8.429646E-002,8.429646E-002,8.429646E-002,8.429646E-002,8.429646E-002,
   **   ~~~   ** Air System Named = CENTRAL SYSTEM did not converge for energy
   **   ~~~   ** Check values should be zero. Most Recent values listed first.
   **   ~~~   ** Demand-to-Supply interface energy check value iteration history trace: 1668.806041,1668.806041,1668.806040,1668.806040,1668.806040,1668.806040,1668.806040,1668.806040,1668.806040,1668.806040,
   **   ~~~   ** Supply-to-demand interface deck 1 energy check value iteration history trace: 2582.366501,2582.366501,2582.366501,2582.366501,2582.366501,2582.366500,2582.366500,2582.366500,2582.366500,2582.366500,
   ** Warning ** SimHVAC: Maximum iterations (20) exceeded for all HVAC loops, at ANNUAL, 03/26 11:45 - 11:52
   **   ~~~   ** The solution for one or more of the Air Loop HVAC systems did not appear to converge
   **   ~~~   ** Air System Named = CENTRAL SYSTEM did not converge for mass flow rate
   **   ~~~   ** Check values should be zero. Most Recent values listed first.
   **   ~~~   ** Demand-to-Supply interface mass flow rate check value iteration history trace: 8.842070E-002,8.842070E-002,8.842070E-002,8.842070E-002,8.842070E-002,8.842070E-002,8.842070E-002,8.842070E-002,8.842070E-002,8.842070E-002,
   **   ~~~   ** Supply-to-demand interface deck 1 mass flow rate check value iteration history trace: 8.842070E-002,8.842070E-002,8.842070E-002,8.842070E-002,8.842070E-002,8.842070E-002,8.842070E-002,8.842070E-002,8.842070E-002,8.842070E-002,
   **   ~~~   ** Air System Named = CENTRAL SYSTEM did not converge for energy
   **   ~~~   ** Check values should be zero. Most Recent values listed first.
   **   ~~~   ** Demand-to-Supply interface energy check value iteration history trace: 1752.152961,1752.152961,1752.152961,1752.152960,1752.152960,1752.152960,1752.152960,1752.152960,1752.152960,1752.152960,
   **   ~~~   ** Supply-to-demand interface deck 1 energy check value iteration history trace: 2657.378000,2657.378000,2657.378000,2657.378000,2657.377999,2657.377999,2657.377999,2657.377999,2657.377999,2657.377998,
   ** Warning ** SimHVAC: Maximum iterations (20) exceeded for all HVAC loops, at ANNUAL, 04/04 19:23 - 19:30
   **   ~~~   ** The solution for one or more of the Air Loop HVAC systems did not appear to converge
   **   ~~~   ** Air System Named = CENTRAL SYSTEM did not converge for mass flow rate
   **   ~~~   ** Check values should be zero. Most Recent values listed first.
   **   ~~~   ** Demand-to-Supply interface mass flow rate check value iteration history trace: 9.460242E-002,9.460242E-002,9.460242E-002,9.460242E-002,9.460242E-002,9.460242E-002,9.460242E-002,9.460242E-002,9.460242E-002,9.460242E-002,
   **   ~~~   ** Supply-to-demand interface deck 1 mass flow rate check value iteration history trace: 9.460242E-002,9.460242E-002,9.460242E-002,9.460242E-002,9.460242E-002,9.460242E-002,9.460242E-002,9.460242E-002,9.460242E-002,9.460242E-002,
   **   ~~~   ** Air System Named = CENTRAL SYSTEM did not converge for energy
   **   ~~~   ** Check values should be zero. Most Recent values listed first.
   **   ~~~   ** Demand-to-Supply interface energy check value iteration history trace: 1864.095153,1864.095153,1864.095153,1864.095153,1864.095153,1864.095153,1864.095153,1864.095153,1864.095153,1864.095153,
   **   ~~~   ** Supply-to-demand interface deck 1 energy check value iteration history trace: 2931.672223,2931.672223,2931.672223,2931.672223,2931.672223,2931.672223,2931.672222,2931.672222,2931.672222,2931.672222,
   ** Warning ** SimHVAC: Maximum iterations (20) exceeded for all HVAC loops, at ANNUAL, 04/05 15:15 - 15:30
   **   ~~~   ** The solution for one or more of the Air Loop HVAC systems did not appear to converge
   **   ~~~   ** Air System Named = CENTRAL SYSTEM did not converge for mass flow rate
   **   ~~~   ** Check values should be zero. Most Recent values listed first.
   **   ~~~   ** Demand-to-Supply interface mass flow rate check value iteration history trace: 6.569384E-002,6.569384E-002,6.569384E-002,6.569384E-002,6.569384E-002,6.569384E-002,6.569384E-002,6.569384E-002,6.569384E-002,6.569384E-002,
   **   ~~~   ** Supply-to-demand interface deck 1 mass flow rate check value iteration history trace: 6.569384E-002,6.569384E-002,6.569384E-002,6.569384E-002,6.569384E-002,6.569384E-002,6.569384E-002,6.569384E-002,6.569384E-002,6.569384E-002,
   **   ~~~   ** Air System Named = CENTRAL SYSTEM did not converge for energy
   **   ~~~   ** Check values should be zero. Most Recent values listed first.
   **   ~~~   ** Demand-to-Supply interface energy check value iteration history trace: 1292.255610,1292.255610,1292.255610,1292.255610,1292.255609,1292.255609,1292.255609,1292.255609,1292.255609,1292.255609,
   **   ~~~   ** Supply-to-demand interface deck 1 energy check value iteration history trace: 2186.375778,2186.375778,2186.375778,2186.375777,2186.375777,2186.375777,2186.375777,2186.375777,2186.375777,2186.375777,
   ** Warning ** SimHVAC: Maximum iterations (20) exceeded for all HVAC loops, at ANNUAL, 04/23 22:15 - 22:30
   **   ~~~   ** The solution for one or more of the Air Loop HVAC systems did not appear to converge
   **   ~~~   ** Air System Named = CENTRAL SYSTEM did not converge for mass flow rate
   **   ~~~   ** Check values should be zero. Most Recent values listed first.
   **   ~~~   ** Demand-to-Supply interface mass flow rate check value iteration history trace: 7.162208E-002,7.162208E-002,7.162208E-002,7.162208E-002,7.162208E-002,7.162208E-002,7.162208E-002,7.162208E-002,7.162208E-002,7.162208E-002,
   **   ~~~   ** Supply-to-demand interface deck 1 mass flow rate check value iteration history trace: 7.162208E-002,7.162208E-002,7.162208E-002,7.162208E-002,7.162208E-002,7.162208E-002,7.162208E-002,7.162208E-002,7.162208E-002,7.162208E-002,
   **   ~~~   ** Air System Named = CENTRAL SYSTEM did not converge for energy
   **   ~~~   ** Check values should be zero. Most Recent values listed first.
   **   ~~~   ** Demand-to-Supply interface energy check value iteration history trace: 1330.926558,1330.926558,1330.926558,1330.926558,1330.926558,1330.926558,1330.926558,1330.926558,1330.926558,1330.926558,
   **   ~~~   ** Supply-to-demand interface deck 1 energy check value iteration history trace: 2137.344925,2137.344925,2137.344925,2137.344925,2137.344925,2137.344925,2137.344925,2137.344925,2137.344925,2137.344925,
   ** Warning ** SimHVAC: Maximum iterations (20) exceeded for all HVAC loops, at ANNUAL, 06/10 05:15 - 05:22
   **   ~~~   ** The solution for one or more of the Air Loop HVAC systems did not appear to converge
   **   ~~~   ** Air System Named = CENTRAL SYSTEM did not converge for mass flow rate
   **   ~~~   ** Check values should be zero. Most Recent values listed first.
   **   ~~~   ** Demand-to-Supply interface mass flow rate check value iteration history trace: 5.741470E-002,5.741470E-002,5.741470E-002,5.741470E-002,5.741470E-002,5.741470E-002,5.741470E-002,5.741470E-002,5.741470E-002,5.741470E-002,
   **   ~~~   ** Supply-to-demand interface deck 1 mass flow rate check value iteration history trace: 5.741470E-002,5.741470E-002,5.741470E-002,5.741470E-002,5.741470E-002,5.741470E-002,5.741470E-002,5.741470E-002,5.741470E-002,5.741470E-002,
   **   ~~~   ** Air System Named = CENTRAL SYSTEM did not converge for energy
   **   ~~~   ** Check values should be zero. Most Recent values listed first.
   **   ~~~   ** Demand-to-Supply interface energy check value iteration history trace: 1346.557564,1346.557564,1346.557564,1346.557564,1346.557565,1346.557565,1346.557565,1346.557565,1346.557566,1346.557566,
   **   ~~~   ** Supply-to-demand interface deck 1 energy check value iteration history trace: 718.904331,718.904332,718.904332,718.904332,718.904332,718.904332,718.904332,718.904332,718.904332,718.904333,
   ** Warning ** SimHVAC: Maximum iterations (20) exceeded for all HVAC loops, at ANNUAL, 06/17 05:23 - 05:30
   **   ~~~   ** The solution for one or more of the Air Loop HVAC systems did not appear to converge
   **   ~~~   ** Air System Named = CENTRAL SYSTEM did not converge for mass flow rate
   **   ~~~   ** Check values should be zero. Most Recent values listed first.
   **   ~~~   ** Demand-to-Supply interface mass flow rate check value iteration history trace: 0.124994,0.124994,0.124994,0.124994,0.124994,0.124994,0.124994,0.124994,0.124994,0.124994,
   **   ~~~   ** Supply-to-demand interface deck 1 mass flow rate check value iteration history trace: 0.124994,0.124994,0.124994,0.124994,0.124994,0.124994,0.124994,0.124994,0.124994,0.124994,
   **   ~~~   ** Air System Named = CENTRAL SYSTEM did not converge for energy
   **   ~~~   ** Check values should be zero. Most Recent values listed first.
   **   ~~~   ** Demand-to-Supply interface energy check value iteration history trace: 2977.057468,2977.057469,2977.057470,2977.057470,2977.057471,2977.057471,2977.057472,2977.057472,2977.057473,2977.057474,
   **   ~~~   ** Supply-to-demand interface deck 1 energy check value iteration history trace: 1713.371090,1713.371090,1713.371091,1713.371091,1713.371091,1713.371092,1713.371092,1713.371092,1713.371093,1713.371093,
   ** Warning ** SimHVAC: Maximum iterations (20) exceeded for all HVAC loops, at ANNUAL, 06/19 06:00 - 06:05
   **   ~~~   ** The solution for one or more of the Air Loop HVAC systems did not appear to converge
   **   ~~~   ** Air System Named = CENTRAL SYSTEM did not converge for mass flow rate
   **   ~~~   ** Check values should be zero. Most Recent values listed first.
   **   ~~~   ** Demand-to-Supply interface mass flow rate check value iteration history trace: 4.906179E-002,4.906179E-002,4.906179E-002,4.906179E-002,4.906179E-002,4.906179E-002,4.906179E-002,4.906179E-002,4.906179E-002,4.906179E-002,
   **   ~~~   ** Supply-to-demand interface deck 1 mass flow rate check value iteration history trace: 4.906179E-002,4.906179E-002,4.906179E-002,4.906179E-002,4.906179E-002,4.906179E-002,4.906179E-002,4.906179E-002,4.906179E-002,4.906179E-002,
   **   ~~~   ** Air System Named = CENTRAL SYSTEM did not converge for energy
   **   ~~~   ** Check values should be zero. Most Recent values listed first.
   **   ~~~   ** Demand-to-Supply interface energy check value iteration history trace: 1150.326239,1150.326239,1150.326239,1150.326239,1150.326239,1150.326239,1150.326239,1150.326239,1150.326240,1150.326240,
   **   ~~~   ** Supply-to-demand interface deck 1 energy check value iteration history trace: 645.731098,645.731098,645.731098,645.731098,645.731098,645.731098,645.731098,645.731098,645.731098,645.731098,
   ** Warning ** SimHVAC: Maximum iterations (20) exceeded for all HVAC loops, at ANNUAL, 06/19 07:26 - 07:30
   **   ~~~   ** The solution for one or more of the Air Loop HVAC systems did not appear to converge
   **   ~~~   ** Air System Named = CENTRAL SYSTEM did not converge for mass flow rate
   **   ~~~   ** Check values should be zero. Most Recent values listed first.
   **   ~~~   ** Demand-to-Supply interface mass flow rate check value iteration history trace: 1.099425E-002,1.099425E-002,1.099425E-002,1.099425E-002,1.099425E-002,1.099425E-002,1.099425E-002,1.099425E-002,1.099425E-002,1.099425E-002,
   **   ~~~   ** Supply-to-demand interface deck 1 mass flow rate check value iteration history trace: 1.099425E-002,1.099425E-002,1.099425E-002,1.099425E-002,1.099425E-002,1.099425E-002,1.099425E-002,1.099425E-002,1.099425E-002,1.099425E-002,
   **   ~~~   ** Air System Named = CENTRAL SYSTEM did not converge for energy
   **   ~~~   ** Check values should be zero. Most Recent values listed first.
   **   ~~~   ** Demand-to-Supply interface energy check value iteration history trace: 257.444350,257.444350,257.444350,257.444350,257.444350,257.444350,257.444350,257.444350,257.444350,257.444350,
   **   ~~~   ** Supply-to-demand interface deck 1 energy check value iteration history trace: 139.565468,139.565468,139.565468,139.565468,139.565468,139.565468,139.565468,139.565468,139.565468,139.565468,
   ** Warning ** SimHVAC: Maximum iterations (20) exceeded for all HVAC loops, at ANNUAL, 10/09 20:45 - 21:00
   **   ~~~   ** The solution for one or more of the Air Loop HVAC systems did not appear to converge
   **   ~~~   ** Air System Named = CENTRAL SYSTEM did not converge for mass flow rate
   **   ~~~   ** Check values should be zero. Most Recent values listed first.
   **   ~~~   ** Demand-to-Supply interface mass flow rate check value iteration history trace: 4.462913E-002,4.462913E-002,4.462913E-002,4.462913E-002,4.462913E-002,4.462913E-002,4.462913E-002,4.462913E-002,4.462913E-002,4.462913E-002,
   **   ~~~   ** Supply-to-demand interface deck 1 mass flow rate check value iteration history trace: 4.462913E-002,4.462913E-002,4.462913E-002,4.462913E-002,4.462913E-002,4.462913E-002,4.462913E-002,4.462913E-002,4.462913E-002,4.462913E-002,
   **   ~~~   ** Air System Named = CENTRAL SYSTEM did not converge for energy
   **   ~~~   ** Check values should be zero. Most Recent values listed first.
   **   ~~~   ** Demand-to-Supply interface energy check value iteration history trace: 1045.604730,1045.604730,1045.604730,1045.604730,1045.604730,1045.604730,1045.604730,1045.604730,1045.604730,1045.604730,
   **   ~~~   ** Supply-to-demand interface deck 1 energy check value iteration history trace: 402.379033,402.379033,402.379033,402.379033,402.379033,402.379033,402.379033,402.379033,402.379033,402.379033,
   ************* Simulation Error Summary *************
   ** Warning ** The following Report Variables were requested but not generated -- check.rdd file
   **   ~~~   ** Either the IDF did not contain these elements, the variable name is misspelled,
   **   ~~~   ** or the requested variable is an advanced output which requires Output : Diagnostics, DisplayAdvancedReportVariables;
   ************* Key=*, VarName=BASEBOARD TOTAL HEATING ENERGY, Frequency=
   ************* Key=*, VarName=WATER HEATER NATURALGAS ENERGY, Frequency=
   ************* Key=*, VarName=COOLING COIL TOTAL HEATING ENERGY, Frequency=
   ************* There are 34 unused schedules in input.
   ************* There are 388 unused week schedules in input.
   ************* There are 396 unused day schedules in input.
   ************* Use Output:Diagnostics,DisplayUnusedSchedules; to see them.
   *************
   ************* ===== Recurring Error Summary =====
   ************* The following recurring error messages occurred.
   *************
   *************  ** Warning ** "TOTAL HOT WATER LOAD" - Target water temperature should be less than or equal to the hot water temperature error continues...
   *************  **   ~~~   **   This error occurred 102183 total times;
   *************  **   ~~~   **   during Warmup 0 times;
   *************  **   ~~~   **   during Sizing 0 times.
   *************  **   ~~~   **   Max=9.786359  Min=1.644534E-003
   *************
   *************  ** Warning ** Temperature out of range [-100. to 200.] (PsyPsatFnTemp)
   *************  **   ~~~   **   This error occurred 1 total times;
   *************  **   ~~~   **   during Warmup 0 times;
   *************  **   ~~~   **   during Sizing 0 times.
   *************  **   ~~~   **   Max=-323.735031 C  Min=-323.735031 C
   *************
   *************  ** Warning ** SimHVAC: Exceeding Maximum iterations for all HVAC loops, during ANNUAL continues
   *************  **   ~~~   **   This error occurred 8 total times;
   *************  **   ~~~   **   during Warmup 0 times;
   *************  **   ~~~   **   during Sizing 0 times.
   *************
   *************
   ************* ===== Final Error Summary =====
   ************* The following error categories occurred.  Consider correcting or noting.
   ************* Nominally Unused Constructions
   ************* ..The nominally unused constructions warning is provided to alert you to potential conditions that can cause
   ************* ..extra time during simulation. Each construction is calculated by the algorithm indicated in the HeatBalanceAlgorithm
   ************* ..object. You may remove the constructions indicated (when you use the DisplayExtraWarnings option).
   *************
   ************* EnergyPlus Warmup Error Summary. During Warmup: 1 Warning; 0 Severe Errors.
   ************* EnergyPlus Sizing Error Summary. During Sizing: 4 Warning; 0 Severe Errors.
   ************* EnergyPlus Completed Successfully-- 102223 Warning; 0 Severe Errors; Elapsed Time=00hr 05min  2.97sec
