Program Version,EnergyPlus, Version 22.2.0-c249759bad, YMD=2023.09.01 19:50,
   ************* Beginning Zone Sizing Calculations
   ** Warning ** ProcessScheduleInput: Schedule:Constant="ALWAYS ON DISCRETE", Schedule Type Limits Name="ONOFF" not found -- will not be validated
   ** Warning ** Foundation:Kiva="KIVA FOUNDATION", no Interior Horizontal Insulation Material Name defined
   **   ~~~   ** Interior Horizontal Insulation Depth will not be used.
   ** Warning ** CheckUsedConstructions: There are 15 nominally unused constructions in input.
   **   ~~~   ** Each Unused construction is shown.
   ************* Construction=INTERIOR FLOOR
   ************* Construction=INTERIOR WINDOW
   ************* Construction=EXTERIOR DOOR
   ************* Construction=INTERIOR DOOR
   ************* Construction=GABLE CONSTRUCTION
   ************* Construction=CRAWL_FLOOR
   ************* Construction=INSULATED PIPE
   ************* Construction=PLAIN PIPE
   ************* Construction=TDD PIPE
   ************* Construction=TDD DOME
   ************* Construction=TDD DIFFUSER
   ************* Construction=CRAWL WALL
   ************* Construction=CEILING-FLOOR-LAYER
   ************* Construction=SLAB CONSTRUCTION W FULL R10 INSULATION
   ************* Construction=SLAB CONSTRUCTION W FULL R5 INSULATION
   ** Warning ** GetDXCoils: Coil:Heating:DX:SingleSpeed="DX_HEATING_COIL" curve values
   **   ~~~   ** ... Defrost Energy Input Ratio Function of Temperature Curve Name = DEFROSTEIR output is not equal to 1.0 (+ or - 10%) at rated conditions.
   **   ~~~   ** ... Curve output at rated conditions = 0.152
   ************* Beginning System Sizing Calculations
   ************* Beginning Plant Sizing Calculations
   ** Warning ** Coil:WaterHeating:AirToWaterHeatPump:Wrapped "HEAT PUMP WATER HEATER EVAPORATOR": Rated air volume flow rate per watt of rated total water heating capacity is out of range
   **   ~~~   ** Min Rated Vol Flow Per Watt=[4.027E-005], Rated Vol Flow Per Watt=[1.510E-004], Max Rated Vol Flow Per Watt=[8.056E-005]. See Input-Output Reference Manual for valid range.
   ************* SizeFan: : Potential issue with equipment sizing for Fan:OnOff HEAT PUMP WATER HEATER FAN
   **   ~~~   ** User-Specified Maximum Flow Rate [m3/s] = 0.22653
   **   ~~~   ** differs from Design Size Maximum Flow Rate [m3/s] = 7.55250E-002
   **   ~~~   ** This may, or may not, indicate mismatched component sizes.
   **   ~~~   ** Verify that the value entered is intended and is consistent with other components.
   ** Warning ** Water heater = WATER HEATER TANK:  Recovery Efficiency and Energy Factor could not be calculated during the test for standard ratings
   **   ~~~   ** Setpoint was never recovered and/or heater never turned on
   ** Warning ** Check input. Pump nominal power or motor efficiency is set to 0, for pump=MAINS PRESSURE
   ** Warning ** Output:Meter: invalid Key Name="ELECTRIC_RANGE:INTERIOREQUIPMENT:ELECTRICITY" - not found.
   ** Warning ** Output:Meter: invalid Key Name="ELECTRIC_DRYER:INTERIOREQUIPMENT:ELECTRICITY" - not found.
   ** Warning ** Output:Meter: invalid Key Name="HEATRECOVERY:ELECTRICITY" - not found.
   ** Warning ** Output:Meter: invalid Key Name="HEATING:NATURALGAS" - not found.
   ** Warning ** Output:Meter: invalid Key Name="WATERSYSTEMS:NATURALGAS" - not found.
   ** Warning ** Output:Meter: invalid Key Name="PROPANE:FACILITY" - not found.
   ** Warning ** Output:Meter: invalid Key Name="HEATING:PROPANE" - not found.
   ************* Testing Individual Branch Integrity
   ************* All Branches passed integrity testing
   ************* Testing Individual Supply Air Path Integrity
   ************* All Supply Air Paths passed integrity testing
   ************* Testing Individual Return Air Path Integrity
   ************* All Return Air Paths passed integrity testing
   ************* No node connection errors were found.
   ************* Beginning Simulation
   ** Warning ** AirflowNetwork::Solver::validate_distribution: Heat pump water heater is simulated along with an AirflowNetwork but is not included in the AirflowNetwork.
   ** Warning ** CalcEquipmentFlowRates: "TOTAL HOT WATER LOAD" - Target water temperature is greater than the hot water temperature by (5.25 C)
   **   ~~~   **  Environment=EXTREME_WINTER, at Simulation time=02/03 06:00 - 06:15
   **   ~~~   ** ...target water temperature     = 53.33 C
   **   ~~~   ** ...hot water temperature        = 48.08 C
   **   ~~~   ** ...Target water temperature should be less than or equal to the hot water temperature. Verify temperature setpoints and schedules.
   ** Warning ** SimHVAC: Maximum iterations (20) exceeded for all HVAC loops, at ANNUAL, 01/09 15:30 - 15:45
   **   ~~~   ** The solution for one or more of the Air Loop HVAC systems did not appear to converge
   **   ~~~   ** Air System Named = CENTRAL SYSTEM did not converge for mass flow rate
   **   ~~~   ** Check values should be zero. Most Recent values listed first.
   **   ~~~   ** Demand-to-Supply interface mass flow rate check value iteration history trace: 4.755403E-002,4.755403E-002,4.755403E-002,4.755403E-002,4.755403E-002,4.755403E-002,4.755403E-002,4.755403E-002,4.755403E-002,4.755403E-002,
   **   ~~~   ** Supply-to-demand interface deck 1 mass flow rate check value iteration history trace: 4.755403E-002,4.755403E-002,4.755403E-002,4.755403E-002,4.755403E-002,4.755403E-002,4.755403E-002,4.755403E-002,4.755403E-002,4.755403E-002,
   **   ~~~   ** Air System Named = CENTRAL SYSTEM did not converge for energy
   **   ~~~   ** Check values should be zero. Most Recent values listed first.
   **   ~~~   ** Demand-to-Supply interface energy check value iteration history trace: 942.231341,942.231341,942.231341,942.231341,942.231341,942.231341,942.231341,942.231341,942.231341,942.231341,
   **   ~~~   ** Supply-to-demand interface deck 1 energy check value iteration history trace: 1758.398203,1758.398203,1758.398202,1758.398202,1758.398202,1758.398202,1758.398202,1758.398202,1758.398202,1758.398202,
   ** Warning ** SimHVAC: Maximum iterations (20) exceeded for all HVAC loops, at ANNUAL, 01/15 18:00 - 18:15
   **   ~~~   ** The solution for one or more of the Air Loop HVAC systems did not appear to converge
   **   ~~~   ** Air System Named = CENTRAL SYSTEM did not converge for mass flow rate
   **   ~~~   ** Check values should be zero. Most Recent values listed first.
   **   ~~~   ** Demand-to-Supply interface mass flow rate check value iteration history trace: 6.439454E-002,6.439454E-002,6.439454E-002,6.439454E-002,6.439454E-002,6.439454E-002,6.439454E-002,6.439454E-002,6.439454E-002,6.439454E-002,
   **   ~~~   ** Supply-to-demand interface deck 1 mass flow rate check value iteration history trace: 6.439454E-002,6.439454E-002,6.439454E-002,6.439454E-002,6.439454E-002,6.439454E-002,6.439454E-002,6.439454E-002,6.439454E-002,6.439454E-002,
   **   ~~~   ** Air System Named = CENTRAL SYSTEM did not converge for energy
   **   ~~~   ** Check values should be zero. Most Recent values listed first.
   **   ~~~   ** Demand-to-Supply interface energy check value iteration history trace: 1272.906511,1272.906511,1272.906511,1272.906510,1272.906510,1272.906510,1272.906510,1272.906510,1272.906510,1272.906510,
   **   ~~~   ** Supply-to-demand interface deck 1 energy check value iteration history trace: 2335.342069,2335.342069,2335.342069,2335.342069,2335.342069,2335.342069,2335.342069,2335.342069,2335.342068,2335.342068,
   ** Warning ** SimHVAC: Maximum iterations (20) exceeded for all HVAC loops, at ANNUAL, 02/25 17:00 - 17:15
   **   ~~~   ** The solution for one or more of the Air Loop HVAC systems did not appear to converge
   **   ~~~   ** Air System Named = CENTRAL SYSTEM did not converge for mass flow rate
   **   ~~~   ** Check values should be zero. Most Recent values listed first.
   **   ~~~   ** Demand-to-Supply interface mass flow rate check value iteration history trace: 7.664117E-002,7.664117E-002,7.664117E-002,7.664117E-002,7.664117E-002,7.664117E-002,7.664117E-002,7.664117E-002,7.664117E-002,7.664117E-002,
   **   ~~~   ** Supply-to-demand interface deck 1 mass flow rate check value iteration history trace: 7.664117E-002,7.664117E-002,7.664117E-002,7.664117E-002,7.664117E-002,7.664117E-002,7.664117E-002,7.664117E-002,7.664117E-002,7.664117E-002,
   **   ~~~   ** Air System Named = CENTRAL SYSTEM did not converge for energy
   **   ~~~   ** Check values should be zero. Most Recent values listed first.
   **   ~~~   ** Demand-to-Supply interface energy check value iteration history trace: 1518.674823,1518.674823,1518.674823,1518.674822,1518.674822,1518.674822,1518.674822,1518.674822,1518.674822,1518.674822,
   **   ~~~   ** Supply-to-demand interface deck 1 energy check value iteration history trace: 2394.738569,2394.738569,2394.738569,2394.738569,2394.738569,2394.738568,2394.738568,2394.738568,2394.738568,2394.738568,
   ** Warning ** SimHVAC: Maximum iterations (20) exceeded for all HVAC loops, at ANNUAL, 03/30 10:10 - 10:12
   **   ~~~   ** The solution for one or more of the Air Loop HVAC systems did not appear to converge
   **   ~~~   ** Air System Named = CENTRAL SYSTEM did not converge for mass flow rate
   **   ~~~   ** Check values should be zero. Most Recent values listed first.
   **   ~~~   ** Demand-to-Supply interface mass flow rate check value iteration history trace: 4.463923E-002,4.463923E-002,4.463923E-002,4.463923E-002,4.463923E-002,4.463923E-002,4.463923E-002,4.463923E-002,4.463923E-002,4.463923E-002,
   **   ~~~   ** Supply-to-demand interface deck 1 mass flow rate check value iteration history trace: 4.463923E-002,4.463923E-002,4.463923E-002,4.463923E-002,4.463923E-002,4.463923E-002,4.463923E-002,4.463923E-002,4.463923E-002,4.463923E-002,
   **   ~~~   ** Air System Named = CENTRAL SYSTEM did not converge for energy
   **   ~~~   ** Check values should be zero. Most Recent values listed first.
   **   ~~~   ** Demand-to-Supply interface energy check value iteration history trace: 880.615690,880.615690,880.615690,880.615690,880.615690,880.615690,880.615690,880.615690,880.615690,880.615690,
   **   ~~~   ** Supply-to-demand interface deck 1 energy check value iteration history trace: 1664.911444,1664.911444,1664.911444,1664.911444,1664.911444,1664.911444,1664.911444,1664.911444,1664.911444,1664.911444,
   ** Warning ** SimHVAC: Maximum iterations (20) exceeded for all HVAC loops, at ANNUAL, 04/03 16:15 - 16:22
   **   ~~~   ** The solution for one or more of the Air Loop HVAC systems did not appear to converge
   **   ~~~   ** Air System Named = CENTRAL SYSTEM did not converge for mass flow rate
   **   ~~~   ** Check values should be zero. Most Recent values listed first.
   **   ~~~   ** Demand-to-Supply interface mass flow rate check value iteration history trace: 6.837938E-002,6.837938E-002,6.837938E-002,6.837938E-002,6.837938E-002,6.837938E-002,6.837938E-002,6.837938E-002,6.837938E-002,6.837938E-002,
   **   ~~~   ** Supply-to-demand interface deck 1 mass flow rate check value iteration history trace: 6.837938E-002,6.837938E-002,6.837938E-002,6.837938E-002,6.837938E-002,6.837938E-002,6.837938E-002,6.837938E-002,6.837938E-002,6.837938E-002,
   **   ~~~   ** Air System Named = CENTRAL SYSTEM did not converge for energy
   **   ~~~   ** Check values should be zero. Most Recent values listed first.
   **   ~~~   ** Demand-to-Supply interface energy check value iteration history trace: 1351.812926,1351.812926,1351.812926,1351.812926,1351.812926,1351.812926,1351.812926,1351.812926,1351.812926,1351.812926,
   **   ~~~   ** Supply-to-demand interface deck 1 energy check value iteration history trace: 2221.556026,2221.556026,2221.556026,2221.556026,2221.556026,2221.556026,2221.556026,2221.556026,2221.556026,2221.556026,
   ** Warning ** SimHVAC: Maximum iterations (20) exceeded for all HVAC loops, at ANNUAL, 04/09 10:15 - 10:30
   **   ~~~   ** The solution for one or more of the Air Loop HVAC systems did not appear to converge
   **   ~~~   ** Air System Named = CENTRAL SYSTEM did not converge for mass flow rate
   **   ~~~   ** Check values should be zero. Most Recent values listed first.
   **   ~~~   ** Demand-to-Supply interface mass flow rate check value iteration history trace: 6.373427E-002,6.373427E-002,6.373427E-002,6.373427E-002,6.373427E-002,6.373427E-002,6.373427E-002,6.373427E-002,6.373427E-002,6.373427E-002,
   **   ~~~   ** Supply-to-demand interface deck 1 mass flow rate check value iteration history trace: 6.373427E-002,6.373427E-002,6.373427E-002,6.373427E-002,6.373427E-002,6.373427E-002,6.373427E-002,6.373427E-002,6.373427E-002,6.373427E-002,
   **   ~~~   ** Air System Named = CENTRAL SYSTEM did not converge for energy
   **   ~~~   ** Check values should be zero. Most Recent values listed first.
   **   ~~~   ** Demand-to-Supply interface energy check value iteration history trace: 1262.939904,1262.939904,1262.939904,1262.939904,1262.939904,1262.939904,1262.939904,1262.939904,1262.939904,1262.939903,
   **   ~~~   ** Supply-to-demand interface deck 1 energy check value iteration history trace: 2332.236982,2332.236982,2332.236982,2332.236982,2332.236981,2332.236981,2332.236981,2332.236981,2332.236981,2332.236981,
   ** Warning ** SimHVAC: Maximum iterations (20) exceeded for all HVAC loops, at ANNUAL, 04/14 10:45 - 11:00
   **   ~~~   ** The solution for one or more of the Air Loop HVAC systems did not appear to converge
   **   ~~~   ** Air System Named = CENTRAL SYSTEM did not converge for mass flow rate
   **   ~~~   ** Check values should be zero. Most Recent values listed first.
   **   ~~~   ** Demand-to-Supply interface mass flow rate check value iteration history trace: 6.638795E-002,6.638795E-002,6.638795E-002,6.638795E-002,6.638795E-002,6.638795E-002,6.638795E-002,6.638795E-002,6.638795E-002,6.638795E-002,
   **   ~~~   ** Supply-to-demand interface deck 1 mass flow rate check value iteration history trace: 6.638795E-002,6.638795E-002,6.638795E-002,6.638795E-002,6.638795E-002,6.638795E-002,6.638795E-002,6.638795E-002,6.638795E-002,6.638795E-002,
   **   ~~~   ** Air System Named = CENTRAL SYSTEM did not converge for energy
   **   ~~~   ** Check values should be zero. Most Recent values listed first.
   **   ~~~   ** Demand-to-Supply interface energy check value iteration history trace: 1315.495249,1315.495249,1315.495249,1315.495249,1315.495249,1315.495248,1315.495248,1315.495248,1315.495248,1315.495248,
   **   ~~~   ** Supply-to-demand interface deck 1 energy check value iteration history trace: 2196.940043,2196.940043,2196.940042,2196.940042,2196.940042,2196.940042,2196.940042,2196.940042,2196.940042,2196.940042,
   ** Warning ** SimHVAC: Maximum iterations (20) exceeded for all HVAC loops, at ANNUAL, 04/17 09:00 - 09:02
   **   ~~~   ** The solution for one or more of the Air Loop HVAC systems did not appear to converge
   **   ~~~   ** Air System Named = CENTRAL SYSTEM did not converge for mass flow rate
   **   ~~~   ** Check values should be zero. Most Recent values listed first.
   **   ~~~   ** Demand-to-Supply interface mass flow rate check value iteration history trace: 6.233263E-002,6.233263E-002,6.233263E-002,6.233263E-002,6.233263E-002,6.233263E-002,6.233263E-002,6.233263E-002,6.233263E-002,6.233263E-002,
   **   ~~~   ** Supply-to-demand interface deck 1 mass flow rate check value iteration history trace: 6.233263E-002,6.233263E-002,6.233263E-002,6.233263E-002,6.233263E-002,6.233263E-002,6.233263E-002,6.233263E-002,6.233263E-002,6.233263E-002,
   **   ~~~   ** Air System Named = CENTRAL SYSTEM did not converge for energy
   **   ~~~   ** Check values should be zero. Most Recent values listed first.
   **   ~~~   ** Demand-to-Supply interface energy check value iteration history trace: 1233.236013,1233.236013,1233.236012,1233.236012,1233.236012,1233.236012,1233.236012,1233.236012,1233.236012,1233.236012,
   **   ~~~   ** Supply-to-demand interface deck 1 energy check value iteration history trace: 2263.252744,2263.252744,2263.252744,2263.252744,2263.252744,2263.252744,2263.252743,2263.252743,2263.252743,2263.252743,
   ** Warning ** SimHVAC: Maximum iterations (20) exceeded for all HVAC loops, at ANNUAL, 05/31 00:00 - 00:15
   **   ~~~   ** The solution for one or more of the Air Loop HVAC systems did not appear to converge
   **   ~~~   ** Air System Named = CENTRAL SYSTEM did not converge for mass flow rate
   **   ~~~   ** Check values should be zero. Most Recent values listed first.
   **   ~~~   ** Demand-to-Supply interface mass flow rate check value iteration history trace: 9.038891E-002,9.038891E-002,9.038891E-002,9.038891E-002,9.038891E-002,9.038891E-002,9.038891E-002,9.038891E-002,9.038891E-002,9.038891E-002,
   **   ~~~   ** Supply-to-demand interface deck 1 mass flow rate check value iteration history trace: 9.038891E-002,9.038891E-002,9.038891E-002,9.038891E-002,9.038891E-002,9.038891E-002,9.038891E-002,9.038891E-002,9.038891E-002,9.038891E-002,
   **   ~~~   ** Air System Named = CENTRAL SYSTEM did not converge for energy
   **   ~~~   ** Check values should be zero. Most Recent values listed first.
   **   ~~~   ** Demand-to-Supply interface energy check value iteration history trace: 2274.199712,2274.199713,2274.199713,2274.199713,2274.199714,2274.199714,2274.199714,2274.199714,2274.199715,2274.199715,
   **   ~~~   ** Supply-to-demand interface deck 1 energy check value iteration history trace: 885.118882,885.118882,885.118882,885.118882,885.118882,885.118882,885.118882,885.118883,885.118883,885.118883,
   ** Warning ** SimHVAC: Maximum iterations (20) exceeded for all HVAC loops, at ANNUAL, 06/02 18:30 - 18:45
   **   ~~~   ** The solution for one or more of the Air Loop HVAC systems did not appear to converge
   **   ~~~   ** Air System Named = CENTRAL SYSTEM did not converge for mass flow rate
   **   ~~~   ** Check values should be zero. Most Recent values listed first.
   **   ~~~   ** Demand-to-Supply interface mass flow rate check value iteration history trace: 7.090157E-002,7.090157E-002,7.090157E-002,7.090157E-002,7.090157E-002,7.090157E-002,7.090157E-002,7.090157E-002,7.090157E-002,7.090157E-002,
   **   ~~~   ** Supply-to-demand interface deck 1 mass flow rate check value iteration history trace: 7.090157E-002,7.090157E-002,7.090157E-002,7.090157E-002,7.090157E-002,7.090157E-002,7.090157E-002,7.090157E-002,7.090157E-002,7.090157E-002,
   **   ~~~   ** Air System Named = CENTRAL SYSTEM did not converge for energy
   **   ~~~   ** Check values should be zero. Most Recent values listed first.
   **   ~~~   ** Demand-to-Supply interface energy check value iteration history trace: 1676.373041,1676.373041,1676.373041,1676.373041,1676.373041,1676.373041,1676.373041,1676.373042,1676.373042,1676.373042,
   **   ~~~   ** Supply-to-demand interface deck 1 energy check value iteration history trace: 766.671982,766.671982,766.671982,766.671982,766.671982,766.671982,766.671982,766.671982,766.671982,766.671982,
   ** Warning ** SimHVAC: Maximum iterations (20) exceeded for all HVAC loops, at ANNUAL, 06/10 06:55 - 07:00
   **   ~~~   ** The solution for one or more of the Air Loop HVAC systems did not appear to converge
   **   ~~~   ** Air System Named = CENTRAL SYSTEM did not converge for mass flow rate
   **   ~~~   ** Check values should be zero. Most Recent values listed first.
   **   ~~~   ** Demand-to-Supply interface mass flow rate check value iteration history trace: 0.115495,0.115495,0.115495,0.115495,0.115495,0.115495,0.115495,0.115495,0.115495,0.115495,
   **   ~~~   ** Supply-to-demand interface deck 1 mass flow rate check value iteration history trace: 0.115495,0.115495,0.115495,0.115495,0.115495,0.115495,0.115495,0.115495,0.115495,0.115495,
   **   ~~~   ** Air System Named = CENTRAL SYSTEM did not converge for energy
   **   ~~~   ** Check values should be zero. Most Recent values listed first.
   **   ~~~   ** Demand-to-Supply interface energy check value iteration history trace: 2751.274412,2751.274412,2751.274412,2751.274412,2751.274412,2751.274413,2751.274413,2751.274413,2751.274413,2751.274413,
   **   ~~~   ** Supply-to-demand interface deck 1 energy check value iteration history trace: 1347.726778,1347.726778,1347.726778,1347.726778,1347.726778,1347.726778,1347.726778,1347.726779,1347.726779,1347.726779,
   ** Warning ** SimHVAC: Maximum iterations (20) exceeded for all HVAC loops, at ANNUAL, 06/10 07:55 - 08:00
   **   ~~~   ** The solution for one or more of the Air Loop HVAC systems did not appear to converge
   **   ~~~   ** Air System Named = CENTRAL SYSTEM did not converge for mass flow rate
   **   ~~~   ** Check values should be zero. Most Recent values listed first.
   **   ~~~   ** Demand-to-Supply interface mass flow rate check value iteration history trace: 0.223044,0.223044,0.223044,0.223044,0.223044,0.223044,0.223044,0.223044,0.223044,0.223044,
   **   ~~~   ** Supply-to-demand interface deck 1 mass flow rate check value iteration history trace: 0.223044,0.223044,0.223044,0.223044,0.223044,0.223044,0.223044,0.223044,0.223044,0.223044,
   **   ~~~   ** Air System Named = CENTRAL SYSTEM did not converge for energy
   **   ~~~   ** Check values should be zero. Most Recent values listed first.
   **   ~~~   ** Demand-to-Supply interface energy check value iteration history trace: 5322.032467,5322.032468,5322.032468,5322.032468,5322.032469,5322.032469,5322.032469,5322.032470,5322.032470,5322.032470,
   **   ~~~   ** Supply-to-demand interface deck 1 energy check value iteration history trace: 2579.103786,2579.103786,2579.103786,2579.103786,2579.103786,2579.103786,2579.103786,2579.103787,2579.103787,2579.103787,
   ** Warning ** SimHVAC: Maximum iterations (20) exceeded for all HVAC loops, at ANNUAL, 06/10 10:53 - 11:00
   **   ~~~   ** The solution for one or more of the Air Loop HVAC systems did not appear to converge
   **   ~~~   ** Air System Named = CENTRAL SYSTEM did not converge for mass flow rate
   **   ~~~   ** Check values should be zero. Most Recent values listed first.
   **   ~~~   ** Demand-to-Supply interface mass flow rate check value iteration history trace: 9.674414E-002,9.674414E-002,9.674414E-002,9.674414E-002,9.674414E-002,9.674414E-002,9.674414E-002,9.674414E-002,9.674414E-002,9.674414E-002,
   **   ~~~   ** Supply-to-demand interface deck 1 mass flow rate check value iteration history trace: 9.674414E-002,9.674414E-002,9.674414E-002,9.674414E-002,9.674414E-002,9.674414E-002,9.674414E-002,9.674414E-002,9.674414E-002,9.674414E-002,
   **   ~~~   ** Air System Named = CENTRAL SYSTEM did not converge for energy
   **   ~~~   ** Check values should be zero. Most Recent values listed first.
   **   ~~~   ** Demand-to-Supply interface energy check value iteration history trace: 2274.438725,2274.438725,2274.438725,2274.438725,2274.438725,2274.438726,2274.438726,2274.438726,2274.438726,2274.438726,
   **   ~~~   ** Supply-to-demand interface deck 1 energy check value iteration history trace: 1059.840233,1059.840233,1059.840233,1059.840234,1059.840234,1059.840234,1059.840234,1059.840234,1059.840234,1059.840234,
   ** Warning ** SimHVAC: Maximum iterations (20) exceeded for all HVAC loops, at ANNUAL, 09/24 09:26 - 09:27
   **   ~~~   ** The solution for one or more of the Air Loop HVAC systems did not appear to converge
   **   ~~~   ** Air System Named = CENTRAL SYSTEM did not converge for mass flow rate
   **   ~~~   ** Check values should be zero. Most Recent values listed first.
   **   ~~~   ** Demand-to-Supply interface mass flow rate check value iteration history trace: 0.267230,0.267230,0.267230,0.267230,0.267230,0.267230,0.267230,0.267230,0.267230,0.267230,
   **   ~~~   ** Supply-to-demand interface deck 1 mass flow rate check value iteration history trace: 0.267230,0.267230,0.267230,0.267230,0.267230,0.267230,0.267230,0.267230,0.267230,0.267230,
   **   ~~~   ** Air System Named = CENTRAL SYSTEM did not converge for energy
   **   ~~~   ** Check values should be zero. Most Recent values listed first.
   **   ~~~   ** Demand-to-Supply interface energy check value iteration history trace: 6304.658392,6304.658393,6304.658394,6304.658395,6304.658397,6304.658398,6304.658399,6304.658400,6304.658401,6304.658402,
   **   ~~~   ** Supply-to-demand interface deck 1 energy check value iteration history trace: 2700.125429,2700.125430,2700.125430,2700.125431,2700.125431,2700.125432,2700.125432,2700.125433,2700.125433,2700.125434,
   ************* Simulation Error Summary *************
   ** Warning ** The following Report Variables were requested but not generated -- check.rdd file
   **   ~~~   ** Either the IDF did not contain these elements, the variable name is misspelled,
   **   ~~~   ** or the requested variable is an advanced output which requires Output : Diagnostics, DisplayAdvancedReportVariables;
   ************* Key=*, VarName=BASEBOARD TOTAL HEATING ENERGY, Frequency=
   ************* Key=*, VarName=WATER HEATER NATURALGAS ENERGY, Frequency=
   ************* Key=*, VarName=COOLING COIL TOTAL HEATING ENERGY, Frequency=
   ************* There are 34 unused schedules in input.
   ************* There are 388 unused week schedules in input.
   ************* There are 396 unused day schedules in input.
   ************* Use Output:Diagnostics,DisplayUnusedSchedules; to see them.
   *************
   ************* ===== Recurring Error Summary =====
   ************* The following recurring error messages occurred.
   *************
   *************  ** Warning ** "TOTAL HOT WATER LOAD" - Target water temperature should be less than or equal to the hot water temperature error continues...
   *************  **   ~~~   **   This error occurred 100889 total times;
   *************  **   ~~~   **   during Warmup 0 times;
   *************  **   ~~~   **   during Sizing 0 times.
   *************  **   ~~~   **   Max=13.359667  Min=4.131712E-004
   *************
   *************  ** Warning ** SimHVAC: Exceeding Maximum iterations for all HVAC loops, during ANNUAL continues
   *************  **   ~~~   **   This error occurred 7 total times;
   *************  **   ~~~   **   during Warmup 0 times;
   *************  **   ~~~   **   during Sizing 0 times.
   *************
   *************
   ************* ===== Final Error Summary =====
   ************* The following error categories occurred.  Consider correcting or noting.
   ************* Nominally Unused Constructions
   ************* ..The nominally unused constructions warning is provided to alert you to potential conditions that can cause
   ************* ..extra time during simulation. Each construction is calculated by the algorithm indicated in the HeatBalanceAlgorithm
   ************* ..object. You may remove the constructions indicated (when you use the DisplayExtraWarnings option).
   *************
   ************* EnergyPlus Warmup Error Summary. During Warmup: 1 Warning; 0 Severe Errors.
   ************* EnergyPlus Sizing Error Summary. During Sizing: 4 Warning; 0 Severe Errors.
   ************* EnergyPlus Completed Successfully-- 100927 Warning; 0 Severe Errors; Elapsed Time=00hr 01min 24.59sec
