Program Version,EnergyPlus, Version 22.2.0-c249759bad, YMD=2023.09.01 15:02,
   ************* Beginning Zone Sizing Calculations
   ** Warning ** ProcessScheduleInput: Schedule:Constant="ALWAYS ON DISCRETE", Schedule Type Limits Name="ONOFF" not found -- will not be validated
   ** Warning ** Foundation:Kiva="KIVA FOUNDATION", no Interior Horizontal Insulation Material Name defined
   **   ~~~   ** Interior Horizontal Insulation Depth will not be used.
   ** Warning ** CheckUsedConstructions: There are 15 nominally unused constructions in input.
   **   ~~~   ** Each Unused construction is shown.
   ************* Construction=INTERIOR FLOOR
   ************* Construction=INTERIOR WINDOW
   ************* Construction=EXTERIOR DOOR
   ************* Construction=INTERIOR DOOR
   ************* Construction=GABLE CONSTRUCTION
   ************* Construction=CRAWL_FLOOR
   ************* Construction=INSULATED PIPE
   ************* Construction=PLAIN PIPE
   ************* Construction=TDD PIPE
   ************* Construction=TDD DOME
   ************* Construction=TDD DIFFUSER
   ************* Construction=CRAWL WALL
   ************* Construction=CEILING-FLOOR-LAYER
   ************* Construction=SLAB CONSTRUCTION W FULL R10 INSULATION
   ************* Construction=SLAB CONSTRUCTION W FULL R5 INSULATION
   ** Warning ** GetDXCoils: Coil:Heating:DX:SingleSpeed="DX_HEATING_COIL" curve values
   **   ~~~   ** ... Defrost Energy Input Ratio Function of Temperature Curve Name = DEFROSTEIR output is not equal to 1.0 (+ or - 10%) at rated conditions.
   **   ~~~   ** ... Curve output at rated conditions = 0.152
   ************* Beginning System Sizing Calculations
   ************* Beginning Plant Sizing Calculations
   ** Warning ** SizeDXCoil Coil:Cooling:DX:SingleSpeed DX_COOLING_COIL
   **   ~~~   ** ...Gross Rated Total Cooling Capacity [W] will be limited by the maximum rated volume flow per rated total capacity ratio.
   **   ~~~   ** ...DX coil volume flow rate ( m3/s ) = 0.409412
   **   ~~~   ** ...Requested capacity ( W ) = 6555.139
   **   ~~~   ** ...Requested flow/capacity ratio ( m3/s/W ) = 6.245E-005
   **   ~~~   ** ...Maximum flow/capacity ratio ( m3/s/W ) = 6.041E-005
   **   ~~~   ** ...Adjusted capacity ( W ) = 6777.225
   ** Warning ** Coil:WaterHeating:AirToWaterHeatPump:Wrapped "HEAT PUMP WATER HEATER EVAPORATOR": Rated air volume flow rate per watt of rated total water heating capacity is out of range
   **   ~~~   ** Min Rated Vol Flow Per Watt=[4.027E-005], Rated Vol Flow Per Watt=[1.386E-004], Max Rated Vol Flow Per Watt=[8.056E-005]. See Input-Output Reference Manual for valid range.
   ** Warning ** Water heater = WATER HEATER TANK:  Recovery Efficiency and Energy Factor could not be calculated during the test for standard ratings
   **   ~~~   ** Setpoint was never recovered and/or heater never turned on
   ** Warning ** Check input. Pump nominal power or motor efficiency is set to 0, for pump=MAINS PRESSURE
   ** Warning ** Output:Meter: invalid Key Name="ELECTRIC_RANGE:INTERIOREQUIPMENT:ELECTRICITY" - not found.
   ** Warning ** Output:Meter: invalid Key Name="ELECTRIC_DRYER:INTERIOREQUIPMENT:ELECTRICITY" - not found.
   ** Warning ** Output:Meter: invalid Key Name="HEATRECOVERY:ELECTRICITY" - not found.
   ** Warning ** Output:Meter: invalid Key Name="HEATING:NATURALGAS" - not found.
   ** Warning ** Output:Meter: invalid Key Name="WATERSYSTEMS:NATURALGAS" - not found.
   ** Warning ** Output:Meter: invalid Key Name="PROPANE:FACILITY" - not found.
   ** Warning ** Output:Meter: invalid Key Name="HEATING:PROPANE" - not found.
   ************* Testing Individual Branch Integrity
   ************* All Branches passed integrity testing
   ************* Testing Individual Supply Air Path Integrity
   ************* All Supply Air Paths passed integrity testing
   ************* Testing Individual Return Air Path Integrity
   ************* All Return Air Paths passed integrity testing
   ************* No node connection errors were found.
   ************* Beginning Simulation
   ** Warning ** AirflowNetwork::Solver::validate_distribution: Heat pump water heater is simulated along with an AirflowNetwork but is not included in the AirflowNetwork.
   ** Warning ** CalcEquipmentFlowRates: "TOTAL HOT WATER LOAD" - Target water temperature is greater than the hot water temperature by (1.68 C)
   **   ~~~   **  Environment=EXTREME_WINTER, at Simulation time=01/20 06:00 - 06:15
   **   ~~~   ** ...target water temperature     = 53.33 C
   **   ~~~   ** ...hot water temperature        = 51.65 C
   **   ~~~   ** ...Target water temperature should be less than or equal to the hot water temperature. Verify temperature setpoints and schedules.
   ** Warning ** SimHVAC: Maximum iterations (20) exceeded for all HVAC loops, at ANNUAL, 02/10 16:30 - 16:35
   **   ~~~   ** The solution for one or more of the Air Loop HVAC systems did not appear to converge
   **   ~~~   ** Air System Named = CENTRAL SYSTEM did not converge for mass flow rate
   **   ~~~   ** Check values should be zero. Most Recent values listed first.
   **   ~~~   ** Demand-to-Supply interface mass flow rate check value iteration history trace: 7.435858E-002,7.435858E-002,7.435858E-002,7.435858E-002,7.435858E-002,7.435858E-002,7.435858E-002,7.435858E-002,7.435858E-002,7.435858E-002,
   **   ~~~   ** Supply-to-demand interface deck 1 mass flow rate check value iteration history trace: 7.435858E-002,7.435858E-002,7.435858E-002,7.435858E-002,7.435858E-002,7.435858E-002,7.435858E-002,7.435858E-002,7.435858E-002,7.435858E-002,
   **   ~~~   ** Air System Named = CENTRAL SYSTEM did not converge for energy
   **   ~~~   ** Check values should be zero. Most Recent values listed first.
   **   ~~~   ** Demand-to-Supply interface energy check value iteration history trace: 1461.990151,1461.990151,1461.990151,1461.990151,1461.990151,1461.990151,1461.990151,1461.990150,1461.990150,1461.990150,
   **   ~~~   ** Supply-to-demand interface deck 1 energy check value iteration history trace: 2548.939614,2548.939613,2548.939613,2548.939613,2548.939613,2548.939613,2548.939613,2548.939613,2548.939613,2548.939613,
   ** Warning ** SimHVAC: Maximum iterations (20) exceeded for all HVAC loops, at ANNUAL, 04/08 09:26 - 09:30
   **   ~~~   ** The solution for one or more of the Air Loop HVAC systems did not appear to converge
   **   ~~~   ** Air System Named = CENTRAL SYSTEM did not converge for mass flow rate
   **   ~~~   ** Check values should be zero. Most Recent values listed first.
   **   ~~~   ** Demand-to-Supply interface mass flow rate check value iteration history trace: 7.943254E-002,7.943254E-002,7.943254E-002,7.943254E-002,7.943254E-002,7.943254E-002,7.943254E-002,7.943254E-002,7.943254E-002,7.943254E-002,
   **   ~~~   ** Supply-to-demand interface deck 1 mass flow rate check value iteration history trace: 7.943254E-002,7.943254E-002,7.943254E-002,7.943254E-002,7.943254E-002,7.943254E-002,7.943254E-002,7.943254E-002,7.943254E-002,7.943254E-002,
   **   ~~~   ** Air System Named = CENTRAL SYSTEM did not converge for energy
   **   ~~~   ** Check values should be zero. Most Recent values listed first.
   **   ~~~   ** Demand-to-Supply interface energy check value iteration history trace: 1568.806698,1568.806698,1568.806697,1568.806697,1568.806697,1568.806697,1568.806697,1568.806697,1568.806697,1568.806697,
   **   ~~~   ** Supply-to-demand interface deck 1 energy check value iteration history trace: 2760.231519,2760.231519,2760.231519,2760.231519,2760.231519,2760.231519,2760.231519,2760.231518,2760.231518,2760.231518,
   ** Warning ** SimHVAC: Maximum iterations (20) exceeded for all HVAC loops, at ANNUAL, 11/07 08:45 - 09:00
   **   ~~~   ** The solution for one or more of the Air Loop HVAC systems did not appear to converge
   **   ~~~   ** Air System Named = CENTRAL SYSTEM did not converge for mass flow rate
   **   ~~~   ** Check values should be zero. Most Recent values listed first.
   **   ~~~   ** Demand-to-Supply interface mass flow rate check value iteration history trace: 1.815817E-002,1.815817E-002,1.815817E-002,1.815817E-002,1.815817E-002,1.815817E-002,1.815817E-002,1.815817E-002,1.815817E-002,1.815817E-002,
   **   ~~~   ** Supply-to-demand interface deck 1 mass flow rate check value iteration history trace: 1.815817E-002,1.815817E-002,1.815817E-002,1.815817E-002,1.815817E-002,1.815817E-002,1.815817E-002,1.815817E-002,1.815817E-002,1.815817E-002,
   **   ~~~   ** Air System Named = CENTRAL SYSTEM did not converge for energy
   **   ~~~   ** Check values should be zero. Most Recent values listed first.
   **   ~~~   ** Demand-to-Supply interface energy check value iteration history trace: 356.326815,356.326815,356.326815,356.326815,356.326815,356.326815,356.326815,356.326815,356.326815,356.326815,
   **   ~~~   ** Supply-to-demand interface deck 1 energy check value iteration history trace: 634.709348,634.709348,634.709348,634.709348,634.709348,634.709348,634.709348,634.709348,634.709348,634.709348,
   ** Warning ** SimHVAC: Maximum iterations (20) exceeded for all HVAC loops, at ANNUAL, 11/08 16:15 - 16:30
   **   ~~~   ** The solution for one or more of the Air Loop HVAC systems did not appear to converge
   **   ~~~   ** Air System Named = CENTRAL SYSTEM did not converge for mass flow rate
   **   ~~~   ** Check values should be zero. Most Recent values listed first.
   **   ~~~   ** Demand-to-Supply interface mass flow rate check value iteration history trace: 0.108292,0.108292,0.108292,0.108292,0.108292,0.108292,0.108292,0.108292,0.108292,0.108292,
   **   ~~~   ** Supply-to-demand interface deck 1 mass flow rate check value iteration history trace: 0.108292,0.108292,0.108292,0.108292,0.108292,0.108292,0.108292,0.108292,0.108292,0.108292,
   **   ~~~   ** Air System Named = CENTRAL SYSTEM did not converge for energy
   **   ~~~   ** Check values should be zero. Most Recent values listed first.
   **   ~~~   ** Demand-to-Supply interface energy check value iteration history trace: 2535.979816,2535.979816,2535.979816,2535.979817,2535.979817,2535.979817,2535.979817,2535.979818,2535.979818,2535.979818,
   **   ~~~   ** Supply-to-demand interface deck 1 energy check value iteration history trace: 1489.948221,1489.948221,1489.948222,1489.948222,1489.948222,1489.948222,1489.948222,1489.948222,1489.948223,1489.948223,
   ** Warning ** SimHVAC: Maximum iterations (20) exceeded for all HVAC loops, at ANNUAL, 11/12 11:25 - 11:30
   **   ~~~   ** The solution for one or more of the Air Loop HVAC systems did not appear to converge
   **   ~~~   ** Air System Named = CENTRAL SYSTEM did not converge for mass flow rate
   **   ~~~   ** Check values should be zero. Most Recent values listed first.
   **   ~~~   ** Demand-to-Supply interface mass flow rate check value iteration history trace: 6.563424E-002,6.563424E-002,6.563424E-002,6.563424E-002,6.563424E-002,6.563424E-002,6.563424E-002,6.563424E-002,6.563424E-002,6.563424E-002,
   **   ~~~   ** Supply-to-demand interface deck 1 mass flow rate check value iteration history trace: 6.563424E-002,6.563424E-002,6.563424E-002,6.563424E-002,6.563424E-002,6.563424E-002,6.563424E-002,6.563424E-002,6.563424E-002,6.563424E-002,
   **   ~~~   ** Air System Named = CENTRAL SYSTEM did not converge for energy
   **   ~~~   ** Check values should be zero. Most Recent values listed first.
   **   ~~~   ** Demand-to-Supply interface energy check value iteration history trace: 1297.572388,1297.572388,1297.572388,1297.572387,1297.572387,1297.572387,1297.572387,1297.572387,1297.572387,1297.572387,
   **   ~~~   ** Supply-to-demand interface deck 1 energy check value iteration history trace: 2250.888035,2250.888035,2250.888035,2250.888035,2250.888035,2250.888035,2250.888034,2250.888034,2250.888034,2250.888034,
   ** Warning ** SimHVAC: Maximum iterations (20) exceeded for all HVAC loops, at ANNUAL, 11/13 20:10 - 20:15
   **   ~~~   ** The solution for one or more of the Air Loop HVAC systems did not appear to converge
   **   ~~~   ** Air System Named = CENTRAL SYSTEM did not converge for mass flow rate
   **   ~~~   ** Check values should be zero. Most Recent values listed first.
   **   ~~~   ** Demand-to-Supply interface mass flow rate check value iteration history trace: 0.310532,0.310532,0.310532,0.310532,0.310532,0.310532,0.310532,0.310532,0.310532,0.310532,
   **   ~~~   ** Supply-to-demand interface deck 1 mass flow rate check value iteration history trace: 0.310532,0.310532,0.310532,0.310532,0.310532,0.310532,0.310532,0.310532,0.310532,0.310532,
   **   ~~~   ** Air System Named = CENTRAL SYSTEM did not converge for energy
   **   ~~~   ** Check values should be zero. Most Recent values listed first.
   **   ~~~   ** Demand-to-Supply interface energy check value iteration history trace: 7469.031364,7469.031365,7469.031366,7469.031367,7469.031368,7469.031369,7469.031370,7469.031371,7469.031372,7469.031373,
   **   ~~~   ** Supply-to-demand interface deck 1 energy check value iteration history trace: 3593.150430,3593.150431,3593.150431,3593.150432,3593.150432,3593.150433,3593.150433,3593.150434,3593.150434,3593.150434,
   ** Warning ** SimHVAC: Maximum iterations (20) exceeded for all HVAC loops, at ANNUAL, 11/15 21:00 - 21:15
   **   ~~~   ** The solution for one or more of the Air Loop HVAC systems did not appear to converge
   **   ~~~   ** Air System Named = CENTRAL SYSTEM did not converge for mass flow rate
   **   ~~~   ** Check values should be zero. Most Recent values listed first.
   **   ~~~   ** Demand-to-Supply interface mass flow rate check value iteration history trace: 0.101523,0.101523,0.101523,0.101523,0.101523,0.101523,0.101523,0.101523,0.101523,0.101523,
   **   ~~~   ** Supply-to-demand interface deck 1 mass flow rate check value iteration history trace: 0.101523,0.101523,0.101523,0.101523,0.101523,0.101523,0.101523,0.101523,0.101523,0.101523,
   **   ~~~   ** Air System Named = CENTRAL SYSTEM did not converge for energy
   **   ~~~   ** Check values should be zero. Most Recent values listed first.
   **   ~~~   ** Demand-to-Supply interface energy check value iteration history trace: 2412.252462,2412.252462,2412.252462,2412.252463,2412.252463,2412.252463,2412.252463,2412.252463,2412.252463,2412.252464,
   **   ~~~   ** Supply-to-demand interface deck 1 energy check value iteration history trace: 1259.835308,1259.835308,1259.835308,1259.835308,1259.835309,1259.835309,1259.835309,1259.835309,1259.835309,1259.835309,
   ** Warning ** SimHVAC: Maximum iterations (20) exceeded for all HVAC loops, at ANNUAL, 11/26 09:46 - 09:48
   **   ~~~   ** The solution for one or more of the Air Loop HVAC systems did not appear to converge
   **   ~~~   ** Air System Named = CENTRAL SYSTEM did not converge for mass flow rate
   **   ~~~   ** Check values should be zero. Most Recent values listed first.
   **   ~~~   ** Demand-to-Supply interface mass flow rate check value iteration history trace: 8.277248E-002,8.277248E-002,8.277248E-002,8.277248E-002,8.277248E-002,8.277248E-002,8.277248E-002,8.277248E-002,8.277248E-002,8.277248E-002,
   **   ~~~   ** Supply-to-demand interface deck 1 mass flow rate check value iteration history trace: 8.277248E-002,8.277248E-002,8.277248E-002,8.277248E-002,8.277248E-002,8.277248E-002,8.277248E-002,8.277248E-002,8.277248E-002,8.277248E-002,
   **   ~~~   ** Air System Named = CENTRAL SYSTEM did not converge for energy
   **   ~~~   ** Check values should be zero. Most Recent values listed first.
   **   ~~~   ** Demand-to-Supply interface energy check value iteration history trace: 1634.348557,1634.348557,1634.348556,1634.348556,1634.348556,1634.348556,1634.348556,1634.348556,1634.348556,1634.348556,
   **   ~~~   ** Supply-to-demand interface deck 1 energy check value iteration history trace: 2873.682757,2873.682757,2873.682757,2873.682757,2873.682757,2873.682757,2873.682757,2873.682757,2873.682757,2873.682756,
   ** Warning ** SimHVAC: Maximum iterations (20) exceeded for all HVAC loops, at ANNUAL, 12/16 09:45 - 09:47
   **   ~~~   ** The solution for one or more of the Air Loop HVAC systems did not appear to converge
   **   ~~~   ** Air System Named = CENTRAL SYSTEM did not converge for mass flow rate
   **   ~~~   ** Check values should be zero. Most Recent values listed first.
   **   ~~~   ** Demand-to-Supply interface mass flow rate check value iteration history trace: 0.111178,0.111178,0.111178,0.111178,0.111178,0.111178,0.111178,0.111178,0.111178,0.111178,
   **   ~~~   ** Supply-to-demand interface deck 1 mass flow rate check value iteration history trace: 0.111178,0.111178,0.111178,0.111178,0.111178,0.111178,0.111178,0.111178,0.111178,0.111178,
   **   ~~~   ** Air System Named = CENTRAL SYSTEM did not converge for energy
   **   ~~~   ** Check values should be zero. Most Recent values listed first.
   **   ~~~   ** Demand-to-Supply interface energy check value iteration history trace: 2203.078084,2203.078084,2203.078084,2203.078084,2203.078084,2203.078084,2203.078084,2203.078083,2203.078083,2203.078083,
   **   ~~~   ** Supply-to-demand interface deck 1 energy check value iteration history trace: 3373.168418,3373.168418,3373.168418,3373.168417,3373.168417,3373.168417,3373.168417,3373.168416,3373.168416,3373.168416,
   ** Warning ** SimHVAC: Maximum iterations (20) exceeded for all HVAC loops, at ANNUAL, 12/17 10:00 - 10:02
   **   ~~~   ** The solution for one or more of the Air Loop HVAC systems did not appear to converge
   **   ~~~   ** Air System Named = CENTRAL SYSTEM did not converge for mass flow rate
   **   ~~~   ** Check values should be zero. Most Recent values listed first.
   **   ~~~   ** Demand-to-Supply interface mass flow rate check value iteration history trace: 8.976715E-002,8.976715E-002,8.976715E-002,8.976715E-002,8.976715E-002,8.976715E-002,8.976715E-002,8.976715E-002,8.976715E-002,8.976715E-002,
   **   ~~~   ** Supply-to-demand interface deck 1 mass flow rate check value iteration history trace: 8.976715E-002,8.976715E-002,8.976715E-002,8.976715E-002,8.976715E-002,8.976715E-002,8.976715E-002,8.976715E-002,8.976715E-002,8.976715E-002,
   **   ~~~   ** Air System Named = CENTRAL SYSTEM did not converge for energy
   **   ~~~   ** Check values should be zero. Most Recent values listed first.
   **   ~~~   ** Demand-to-Supply interface energy check value iteration history trace: 1770.578846,1770.578846,1770.578846,1770.578846,1770.578846,1770.578845,1770.578845,1770.578845,1770.578845,1770.578845,
   **   ~~~   ** Supply-to-demand interface deck 1 energy check value iteration history trace: 3061.978884,3061.978884,3061.978884,3061.978883,3061.978883,3061.978883,3061.978883,3061.978883,3061.978883,3061.978883,
   ************* Simulation Error Summary *************
   ** Warning ** The following Report Variables were requested but not generated -- check.rdd file
   **   ~~~   ** Either the IDF did not contain these elements, the variable name is misspelled,
   **   ~~~   ** or the requested variable is an advanced output which requires Output : Diagnostics, DisplayAdvancedReportVariables;
   ************* Key=*, VarName=BASEBOARD TOTAL HEATING ENERGY, Frequency=
   ************* Key=*, VarName=WATER HEATER NATURALGAS ENERGY, Frequency=
   ************* Key=*, VarName=COOLING COIL TOTAL HEATING ENERGY, Frequency=
   ************* There are 34 unused schedules in input.
   ************* There are 388 unused week schedules in input.
   ************* There are 396 unused day schedules in input.
   ************* Use Output:Diagnostics,DisplayUnusedSchedules; to see them.
   *************
   ************* ===== Recurring Error Summary =====
   ************* The following recurring error messages occurred.
   *************
   *************  ** Warning ** "TOTAL HOT WATER LOAD" - Target water temperature should be less than or equal to the hot water temperature error continues...
   *************  **   ~~~   **   This error occurred 110145 total times;
   *************  **   ~~~   **   during Warmup 0 times;
   *************  **   ~~~   **   during Sizing 0 times.
   *************  **   ~~~   **   Max=8.683953  Min=4.312621E-006
   *************
   *************
   ************* ===== Final Error Summary =====
   ************* The following error categories occurred.  Consider correcting or noting.
   ************* Nominally Unused Constructions
   ************* ..The nominally unused constructions warning is provided to alert you to potential conditions that can cause
   ************* ..extra time during simulation. Each construction is calculated by the algorithm indicated in the HeatBalanceAlgorithm
   ************* ..object. You may remove the constructions indicated (when you use the DisplayExtraWarnings option).
   *************
   ************* EnergyPlus Warmup Error Summary. During Warmup: 1 Warning; 0 Severe Errors.
   ************* EnergyPlus Sizing Error Summary. During Sizing: 4 Warning; 0 Severe Errors.
   ************* EnergyPlus Completed Successfully-- 110173 Warning; 0 Severe Errors; Elapsed Time=00hr 05min 32.83sec
