Program Version,EnergyPlus, Version 22.2.0-c249759bad, YMD=2023.09.01 20:03,
   ************* Beginning Zone Sizing Calculations
   ** Warning ** ProcessScheduleInput: Schedule:Constant="ALWAYS ON DISCRETE", Schedule Type Limits Name="ONOFF" not found -- will not be validated
   ** Warning ** Foundation:Kiva="KIVA FOUNDATION", no Interior Horizontal Insulation Material Name defined
   **   ~~~   ** Interior Horizontal Insulation Depth will not be used.
   ** Warning ** CheckUsedConstructions: There are 15 nominally unused constructions in input.
   **   ~~~   ** Each Unused construction is shown.
   ************* Construction=INTERIOR FLOOR
   ************* Construction=INTERIOR WINDOW
   ************* Construction=EXTERIOR DOOR
   ************* Construction=INTERIOR DOOR
   ************* Construction=GABLE CONSTRUCTION
   ************* Construction=CRAWL_FLOOR
   ************* Construction=INSULATED PIPE
   ************* Construction=PLAIN PIPE
   ************* Construction=TDD PIPE
   ************* Construction=TDD DOME
   ************* Construction=TDD DIFFUSER
   ************* Construction=CRAWL WALL
   ************* Construction=CEILING-FLOOR-LAYER
   ************* Construction=SLAB CONSTRUCTION W FULL R10 INSULATION
   ************* Construction=SLAB CONSTRUCTION W FULL R5 INSULATION
   ** Warning ** GetDXCoils: Coil:Heating:DX:SingleSpeed="DX_HEATING_COIL" curve values
   **   ~~~   ** ... Defrost Energy Input Ratio Function of Temperature Curve Name = DEFROSTEIR output is not equal to 1.0 (+ or - 10%) at rated conditions.
   **   ~~~   ** ... Curve output at rated conditions = 0.152
   ************* Beginning System Sizing Calculations
   ************* Beginning Plant Sizing Calculations
   ** Warning ** Coil:WaterHeating:AirToWaterHeatPump:Wrapped "HEAT PUMP WATER HEATER EVAPORATOR": Rated air volume flow rate per watt of rated total water heating capacity is out of range
   **   ~~~   ** Min Rated Vol Flow Per Watt=[4.027E-005], Rated Vol Flow Per Watt=[1.510E-004], Max Rated Vol Flow Per Watt=[8.056E-005]. See Input-Output Reference Manual for valid range.
   ************* SizeFan: : Potential issue with equipment sizing for Fan:OnOff HEAT PUMP WATER HEATER FAN
   **   ~~~   ** User-Specified Maximum Flow Rate [m3/s] = 0.22653
   **   ~~~   ** differs from Design Size Maximum Flow Rate [m3/s] = 7.55250E-002
   **   ~~~   ** This may, or may not, indicate mismatched component sizes.
   **   ~~~   ** Verify that the value entered is intended and is consistent with other components.
   ** Warning ** Water heater = WATER HEATER TANK:  Recovery Efficiency and Energy Factor could not be calculated during the test for standard ratings
   **   ~~~   ** Setpoint was never recovered and/or heater never turned on
   ** Warning ** Check input. Pump nominal power or motor efficiency is set to 0, for pump=MAINS PRESSURE
   ** Warning ** Output:Meter: invalid Key Name="ELECTRIC_RANGE:INTERIOREQUIPMENT:ELECTRICITY" - not found.
   ** Warning ** Output:Meter: invalid Key Name="ELECTRIC_DRYER:INTERIOREQUIPMENT:ELECTRICITY" - not found.
   ** Warning ** Output:Meter: invalid Key Name="HEATRECOVERY:ELECTRICITY" - not found.
   ** Warning ** Output:Meter: invalid Key Name="HEATING:NATURALGAS" - not found.
   ** Warning ** Output:Meter: invalid Key Name="WATERSYSTEMS:NATURALGAS" - not found.
   ** Warning ** Output:Meter: invalid Key Name="PROPANE:FACILITY" - not found.
   ** Warning ** Output:Meter: invalid Key Name="HEATING:PROPANE" - not found.
   ************* Testing Individual Branch Integrity
   ************* All Branches passed integrity testing
   ************* Testing Individual Supply Air Path Integrity
   ************* All Supply Air Paths passed integrity testing
   ************* Testing Individual Return Air Path Integrity
   ************* All Return Air Paths passed integrity testing
   ************* No node connection errors were found.
   ************* Beginning Simulation
   ** Warning ** AirflowNetwork::Solver::validate_distribution: Heat pump water heater is simulated along with an AirflowNetwork but is not included in the AirflowNetwork.
   ** Warning ** CalcEquipmentFlowRates: "TOTAL HOT WATER LOAD" - Target water temperature is greater than the hot water temperature by (4.32 C)
   **   ~~~   **  Environment=EXTREME_WINTER, at Simulation time=01/27 07:00 - 07:15
   **   ~~~   ** ...target water temperature     = 53.33 C
   **   ~~~   ** ...hot water temperature        = 49.02 C
   **   ~~~   ** ...Target water temperature should be less than or equal to the hot water temperature. Verify temperature setpoints and schedules.
   ** Warning ** SimHVAC: Maximum iterations (20) exceeded for all HVAC loops, at EXTREME_WINTER, 01/27 22:30 - 22:45
   **   ~~~   ** The solution for one or more of the Air Loop HVAC systems did not appear to converge
   **   ~~~   ** Air System Named = CENTRAL SYSTEM did not converge for mass flow rate
   **   ~~~   ** Check values should be zero. Most Recent values listed first.
   **   ~~~   ** Demand-to-Supply interface mass flow rate check value iteration history trace: 8.819237E-002,8.819237E-002,8.819237E-002,8.819237E-002,8.819237E-002,8.819237E-002,8.819237E-002,8.819237E-002,8.819237E-002,8.819237E-002,
   **   ~~~   ** Supply-to-demand interface deck 1 mass flow rate check value iteration history trace: 8.819237E-002,8.819237E-002,8.819237E-002,8.819237E-002,8.819237E-002,8.819237E-002,8.819237E-002,8.819237E-002,8.819237E-002,8.819237E-002,
   **   ~~~   ** Air System Named = CENTRAL SYSTEM did not converge for energy
   **   ~~~   ** Check values should be zero. Most Recent values listed first.
   **   ~~~   ** Demand-to-Supply interface energy check value iteration history trace: 1647.968939,1647.968939,1647.968939,1647.968939,1647.968938,1647.968938,1647.968938,1647.968938,1647.968938,1647.968938,
   **   ~~~   ** Supply-to-demand interface deck 1 energy check value iteration history trace: 2601.885099,2601.885099,2601.885099,2601.885098,2601.885098,2601.885098,2601.885098,2601.885098,2601.885098,2601.885097,
   ** Warning ** SimHVAC: Maximum iterations (20) exceeded for all HVAC loops, at ANNUAL, 01/07 12:00 - 12:15
   **   ~~~   ** The solution for one or more of the Air Loop HVAC systems did not appear to converge
   **   ~~~   ** Air System Named = CENTRAL SYSTEM did not converge for mass flow rate
   **   ~~~   ** Check values should be zero. Most Recent values listed first.
   **   ~~~   ** Demand-to-Supply interface mass flow rate check value iteration history trace: 7.240439E-002,7.240439E-002,7.240439E-002,7.240439E-002,7.240439E-002,7.240439E-002,7.240439E-002,7.240439E-002,7.240439E-002,7.240439E-002,
   **   ~~~   ** Supply-to-demand interface deck 1 mass flow rate check value iteration history trace: 7.240439E-002,7.240439E-002,7.240439E-002,7.240439E-002,7.240439E-002,7.240439E-002,7.240439E-002,7.240439E-002,7.240439E-002,7.240439E-002,
   **   ~~~   ** Air System Named = CENTRAL SYSTEM did not converge for energy
   **   ~~~   ** Check values should be zero. Most Recent values listed first.
   **   ~~~   ** Demand-to-Supply interface energy check value iteration history trace: 1434.651601,1434.651601,1434.651601,1434.651600,1434.651600,1434.651600,1434.651600,1434.651600,1434.651600,1434.651600,
   **   ~~~   ** Supply-to-demand interface deck 1 energy check value iteration history trace: 2220.454964,2220.454964,2220.454964,2220.454964,2220.454964,2220.454963,2220.454963,2220.454963,2220.454963,2220.454963,
   ** Warning ** SimHVAC: Maximum iterations (20) exceeded for all HVAC loops, at ANNUAL, 01/11 12:15 - 12:30
   **   ~~~   ** The solution for one or more of the Air Loop HVAC systems did not appear to converge
   **   ~~~   ** Air System Named = CENTRAL SYSTEM did not converge for mass flow rate
   **   ~~~   ** Check values should be zero. Most Recent values listed first.
   **   ~~~   ** Demand-to-Supply interface mass flow rate check value iteration history trace: 8.133441E-002,8.133441E-002,8.133441E-002,8.133441E-002,8.133441E-002,8.133441E-002,8.133441E-002,8.133441E-002,8.133441E-002,8.133441E-002,
   **   ~~~   ** Supply-to-demand interface deck 1 mass flow rate check value iteration history trace: 8.133441E-002,8.133441E-002,8.133441E-002,8.133441E-002,8.133441E-002,8.133441E-002,8.133441E-002,8.133441E-002,8.133441E-002,8.133441E-002,
   **   ~~~   ** Air System Named = CENTRAL SYSTEM did not converge for energy
   **   ~~~   ** Check values should be zero. Most Recent values listed first.
   **   ~~~   ** Demand-to-Supply interface energy check value iteration history trace: 1612.073717,1612.073717,1612.073717,1612.073717,1612.073717,1612.073716,1612.073716,1612.073716,1612.073716,1612.073716,
   **   ~~~   ** Supply-to-demand interface deck 1 energy check value iteration history trace: 2452.083288,2452.083288,2452.083288,2452.083288,2452.083287,2452.083287,2452.083287,2452.083287,2452.083287,2452.083287,
   ** Warning ** SimHVAC: Maximum iterations (20) exceeded for all HVAC loops, at ANNUAL, 01/17 11:30 - 11:45
   **   ~~~   ** The solution for one or more of the Air Loop HVAC systems did not appear to converge
   **   ~~~   ** Air System Named = CENTRAL SYSTEM did not converge for mass flow rate
   **   ~~~   ** Check values should be zero. Most Recent values listed first.
   **   ~~~   ** Demand-to-Supply interface mass flow rate check value iteration history trace: 0.109656,0.109656,0.109656,0.109656,0.109656,0.109656,0.109656,0.109656,0.109656,0.109656,
   **   ~~~   ** Supply-to-demand interface deck 1 mass flow rate check value iteration history trace: 0.109656,0.109656,0.109656,0.109656,0.109656,0.109656,0.109656,0.109656,0.109656,0.109656,
   **   ~~~   ** Air System Named = CENTRAL SYSTEM did not converge for energy
   **   ~~~   ** Check values should be zero. Most Recent values listed first.
   **   ~~~   ** Demand-to-Supply interface energy check value iteration history trace: 2173.067859,2173.067859,2173.067858,2173.067858,2173.067858,2173.067858,2173.067858,2173.067858,2173.067858,2173.067857,
   **   ~~~   ** Supply-to-demand interface deck 1 energy check value iteration history trace: 3304.603007,3304.603007,3304.603007,3304.603006,3304.603006,3304.603006,3304.603006,3304.603006,3304.603005,3304.603005,
   ** Warning ** SimHVAC: Maximum iterations (20) exceeded for all HVAC loops, at ANNUAL, 01/17 12:00 - 12:15
   **   ~~~   ** The solution for one or more of the Air Loop HVAC systems did not appear to converge
   **   ~~~   ** Air System Named = CENTRAL SYSTEM did not converge for mass flow rate
   **   ~~~   ** Check values should be zero. Most Recent values listed first.
   **   ~~~   ** Demand-to-Supply interface mass flow rate check value iteration history trace: 0.105596,0.105596,0.105596,0.105596,0.105596,0.105596,0.105596,0.105596,0.105596,0.105596,
   **   ~~~   ** Supply-to-demand interface deck 1 mass flow rate check value iteration history trace: 0.105596,0.105596,0.105596,0.105596,0.105596,0.105596,0.105596,0.105596,0.105596,0.105596,
   **   ~~~   ** Air System Named = CENTRAL SYSTEM did not converge for energy
   **   ~~~   ** Check values should be zero. Most Recent values listed first.
   **   ~~~   ** Demand-to-Supply interface energy check value iteration history trace: 2092.577101,2092.577101,2092.577101,2092.577100,2092.577100,2092.577100,2092.577100,2092.577100,2092.577100,2092.577100,
   **   ~~~   ** Supply-to-demand interface deck 1 energy check value iteration history trace: 3186.930860,3186.930860,3186.930860,3186.930860,3186.930859,3186.930859,3186.930859,3186.930859,3186.930859,3186.930858,
   ** Warning ** SimHVAC: Maximum iterations (20) exceeded for all HVAC loops, at ANNUAL, 01/17 13:23 - 13:30
   **   ~~~   ** The solution for one or more of the Air Loop HVAC systems did not appear to converge
   **   ~~~   ** Air System Named = CENTRAL SYSTEM did not converge for mass flow rate
   **   ~~~   ** Check values should be zero. Most Recent values listed first.
   **   ~~~   ** Demand-to-Supply interface mass flow rate check value iteration history trace: 9.425931E-002,9.425931E-002,9.425931E-002,9.425931E-002,9.425931E-002,9.425931E-002,9.425931E-002,9.425931E-002,9.425931E-002,9.425931E-002,
   **   ~~~   ** Supply-to-demand interface deck 1 mass flow rate check value iteration history trace: 9.425931E-002,9.425931E-002,9.425931E-002,9.425931E-002,9.425931E-002,9.425931E-002,9.425931E-002,9.425931E-002,9.425931E-002,9.425931E-002,
   **   ~~~   ** Air System Named = CENTRAL SYSTEM did not converge for energy
   **   ~~~   ** Check values should be zero. Most Recent values listed first.
   **   ~~~   ** Demand-to-Supply interface energy check value iteration history trace: 1866.494284,1866.494284,1866.494284,1866.494284,1866.494284,1866.494283,1866.494283,1866.494283,1866.494283,1866.494283,
   **   ~~~   ** Supply-to-demand interface deck 1 energy check value iteration history trace: 2843.074105,2843.074105,2843.074105,2843.074105,2843.074105,2843.074104,2843.074104,2843.074104,2843.074104,2843.074104,
   ** Warning ** SimHVAC: Maximum iterations (20) exceeded for all HVAC loops, at ANNUAL, 01/21 12:08 - 12:15
   **   ~~~   ** The solution for one or more of the Air Loop HVAC systems did not appear to converge
   **   ~~~   ** Air System Named = CENTRAL SYSTEM did not converge for mass flow rate
   **   ~~~   ** Check values should be zero. Most Recent values listed first.
   **   ~~~   ** Demand-to-Supply interface mass flow rate check value iteration history trace: 7.627181E-002,7.627181E-002,7.627181E-002,7.627181E-002,7.627181E-002,7.627181E-002,7.627181E-002,7.627181E-002,7.627181E-002,7.627181E-002,
   **   ~~~   ** Supply-to-demand interface deck 1 mass flow rate check value iteration history trace: 7.627181E-002,7.627181E-002,7.627181E-002,7.627181E-002,7.627181E-002,7.627181E-002,7.627181E-002,7.627181E-002,7.627181E-002,7.627181E-002,
   **   ~~~   ** Air System Named = CENTRAL SYSTEM did not converge for energy
   **   ~~~   ** Check values should be zero. Most Recent values listed first.
   **   ~~~   ** Demand-to-Supply interface energy check value iteration history trace: 1500.299202,1500.299202,1500.299202,1500.299202,1500.299202,1500.299201,1500.299201,1500.299201,1500.299201,1500.299201,
   **   ~~~   ** Supply-to-demand interface deck 1 energy check value iteration history trace: 2336.183846,2336.183845,2336.183845,2336.183845,2336.183845,2336.183845,2336.183845,2336.183844,2336.183844,2336.183844,
   ** Warning ** SimHVAC: Maximum iterations (20) exceeded for all HVAC loops, at ANNUAL, 01/22 13:45 - 14:00
   **   ~~~   ** The solution for one or more of the Air Loop HVAC systems did not appear to converge
   **   ~~~   ** Air System Named = CENTRAL SYSTEM did not converge for mass flow rate
   **   ~~~   ** Check values should be zero. Most Recent values listed first.
   **   ~~~   ** Demand-to-Supply interface mass flow rate check value iteration history trace: 7.637056E-002,7.637056E-002,7.637056E-002,7.637056E-002,7.637056E-002,7.637056E-002,7.637056E-002,7.637056E-002,7.637056E-002,7.637056E-002,
   **   ~~~   ** Supply-to-demand interface deck 1 mass flow rate check value iteration history trace: 7.637056E-002,7.637056E-002,7.637056E-002,7.637056E-002,7.637056E-002,7.637056E-002,7.637056E-002,7.637056E-002,7.637056E-002,7.637056E-002,
   **   ~~~   ** Air System Named = CENTRAL SYSTEM did not converge for energy
   **   ~~~   ** Check values should be zero. Most Recent values listed first.
   **   ~~~   ** Demand-to-Supply interface energy check value iteration history trace: 1513.281959,1513.281959,1513.281959,1513.281959,1513.281959,1513.281959,1513.281958,1513.281958,1513.281958,1513.281958,
   **   ~~~   ** Supply-to-demand interface deck 1 energy check value iteration history trace: 2313.546995,2313.546995,2313.546994,2313.546994,2313.546994,2313.546994,2313.546994,2313.546994,2313.546994,2313.546993,
   ** Warning ** SimHVAC: Maximum iterations (20) exceeded for all HVAC loops, at ANNUAL, 01/23 11:38 - 11:41
   **   ~~~   ** The solution for one or more of the Air Loop HVAC systems did not appear to converge
   **   ~~~   ** Air System Named = CENTRAL SYSTEM did not converge for mass flow rate
   **   ~~~   ** Check values should be zero. Most Recent values listed first.
   **   ~~~   ** Demand-to-Supply interface mass flow rate check value iteration history trace: 8.709642E-002,8.709642E-002,8.709642E-002,8.709642E-002,8.709642E-002,8.709642E-002,8.709642E-002,8.709642E-002,8.709642E-002,8.709642E-002,
   **   ~~~   ** Supply-to-demand interface deck 1 mass flow rate check value iteration history trace: 8.709642E-002,8.709642E-002,8.709642E-002,8.709642E-002,8.709642E-002,8.709642E-002,8.709642E-002,8.709642E-002,8.709642E-002,8.709642E-002,
   **   ~~~   ** Air System Named = CENTRAL SYSTEM did not converge for energy
   **   ~~~   ** Check values should be zero. Most Recent values listed first.
   **   ~~~   ** Demand-to-Supply interface energy check value iteration history trace: 1725.991421,1725.991421,1725.991421,1725.991420,1725.991420,1725.991420,1725.991420,1725.991420,1725.991420,1725.991420,
   **   ~~~   ** Supply-to-demand interface deck 1 energy check value iteration history trace: 2606.511914,2606.511914,2606.511913,2606.511913,2606.511913,2606.511913,2606.511913,2606.511913,2606.511912,2606.511912,
   ** Warning ** SimHVAC: Maximum iterations (20) exceeded for all HVAC loops, at ANNUAL, 01/26 10:45 - 11:00
   **   ~~~   ** The solution for one or more of the Air Loop HVAC systems did not appear to converge
   **   ~~~   ** Air System Named = CENTRAL SYSTEM did not converge for mass flow rate
   **   ~~~   ** Check values should be zero. Most Recent values listed first.
   **   ~~~   ** Demand-to-Supply interface mass flow rate check value iteration history trace: 8.099932E-002,8.099932E-002,8.099932E-002,8.099932E-002,8.099932E-002,8.099932E-002,8.099932E-002,8.099932E-002,8.099932E-002,8.099932E-002,
   **   ~~~   ** Supply-to-demand interface deck 1 mass flow rate check value iteration history trace: 8.099932E-002,8.099932E-002,8.099932E-002,8.099932E-002,8.099932E-002,8.099932E-002,8.099932E-002,8.099932E-002,8.099932E-002,8.099932E-002,
   **   ~~~   ** Air System Named = CENTRAL SYSTEM did not converge for energy
   **   ~~~   ** Check values should be zero. Most Recent values listed first.
   **   ~~~   ** Demand-to-Supply interface energy check value iteration history trace: 1604.766114,1604.766114,1604.766114,1604.766114,1604.766114,1604.766114,1604.766114,1604.766114,1604.766114,1604.766114,
   **   ~~~   ** Supply-to-demand interface deck 1 energy check value iteration history trace: 2684.442011,2684.442010,2684.442010,2684.442010,2684.442010,2684.442010,2684.442010,2684.442010,2684.442010,2684.442010,
   ** Warning ** Temperature out of range [-100. to 200.] (PsyPsatFnTemp)
   **   ~~~   **  Routine=PsyTwbFnTdbWPb, Environment=ANNUAL, at Simulation time=02/14 12:00 - 12:04
   **   ~~~   **  Input Temperature=-323.73
   ** Warning ** SimHVAC: Maximum iterations (20) exceeded for all HVAC loops, at ANNUAL, 02/19 11:40 - 11:45
   **   ~~~   ** The solution for one or more of the Air Loop HVAC systems did not appear to converge
   **   ~~~   ** Air System Named = CENTRAL SYSTEM did not converge for mass flow rate
   **   ~~~   ** Check values should be zero. Most Recent values listed first.
   **   ~~~   ** Demand-to-Supply interface mass flow rate check value iteration history trace: 8.826306E-002,8.826306E-002,8.826306E-002,8.826306E-002,8.826306E-002,8.826306E-002,8.826306E-002,8.826306E-002,8.826306E-002,8.826306E-002,
   **   ~~~   ** Supply-to-demand interface deck 1 mass flow rate check value iteration history trace: 8.826306E-002,8.826306E-002,8.826306E-002,8.826306E-002,8.826306E-002,8.826306E-002,8.826306E-002,8.826306E-002,8.826306E-002,8.826306E-002,
   **   ~~~   ** Air System Named = CENTRAL SYSTEM did not converge for energy
   **   ~~~   ** Check values should be zero. Most Recent values listed first.
   **   ~~~   ** Demand-to-Supply interface energy check value iteration history trace: 1749.063718,1749.063718,1749.063718,1749.063718,1749.063718,1749.063718,1749.063718,1749.063717,1749.063717,1749.063717,
   **   ~~~   ** Supply-to-demand interface deck 1 energy check value iteration history trace: 2750.867809,2750.867809,2750.867809,2750.867809,2750.867809,2750.867808,2750.867808,2750.867808,2750.867808,2750.867808,
   ** Warning ** SimHVAC: Maximum iterations (20) exceeded for all HVAC loops, at ANNUAL, 03/01 13:00 - 13:15
   **   ~~~   ** The solution for one or more of the Air Loop HVAC systems did not appear to converge
   **   ~~~   ** Air System Named = CENTRAL SYSTEM did not converge for mass flow rate
   **   ~~~   ** Check values should be zero. Most Recent values listed first.
   **   ~~~   ** Demand-to-Supply interface mass flow rate check value iteration history trace: 8.764036E-002,8.764036E-002,8.764036E-002,8.764036E-002,8.764036E-002,8.764036E-002,8.764036E-002,8.764036E-002,8.764036E-002,8.764036E-002,
   **   ~~~   ** Supply-to-demand interface deck 1 mass flow rate check value iteration history trace: 8.764036E-002,8.764036E-002,8.764036E-002,8.764036E-002,8.764036E-002,8.764036E-002,8.764036E-002,8.764036E-002,8.764036E-002,8.764036E-002,
   **   ~~~   ** Air System Named = CENTRAL SYSTEM did not converge for energy
   **   ~~~   ** Check values should be zero. Most Recent values listed first.
   **   ~~~   ** Demand-to-Supply interface energy check value iteration history trace: 1738.319516,1738.319516,1738.319516,1738.319515,1738.319515,1738.319515,1738.319515,1738.319515,1738.319515,1738.319515,
   **   ~~~   ** Supply-to-demand interface deck 1 energy check value iteration history trace: 2494.566917,2494.566917,2494.566917,2494.566916,2494.566916,2494.566916,2494.566916,2494.566916,2494.566915,2494.566915,
   ** Warning ** SimHVAC: Maximum iterations (20) exceeded for all HVAC loops, at ANNUAL, 03/06 16:15 - 16:30
   **   ~~~   ** The solution for one or more of the Air Loop HVAC systems did not appear to converge
   **   ~~~   ** Air System Named = CENTRAL SYSTEM did not converge for mass flow rate
   **   ~~~   ** Check values should be zero. Most Recent values listed first.
   **   ~~~   ** Demand-to-Supply interface mass flow rate check value iteration history trace: 6.029769E-002,6.029769E-002,6.029769E-002,6.029769E-002,6.029769E-002,6.029769E-002,6.029769E-002,6.029769E-002,6.029769E-002,6.029769E-002,
   **   ~~~   ** Supply-to-demand interface deck 1 mass flow rate check value iteration history trace: 6.029769E-002,6.029769E-002,6.029769E-002,6.029769E-002,6.029769E-002,6.029769E-002,6.029769E-002,6.029769E-002,6.029769E-002,6.029769E-002,
   **   ~~~   ** Air System Named = CENTRAL SYSTEM did not converge for energy
   **   ~~~   ** Check values should be zero. Most Recent values listed first.
   **   ~~~   ** Demand-to-Supply interface energy check value iteration history trace: 1193.391044,1193.391044,1193.391044,1193.391044,1193.391044,1193.391044,1193.391044,1193.391043,1193.391043,1193.391043,
   **   ~~~   ** Supply-to-demand interface deck 1 energy check value iteration history trace: 2144.051495,2144.051495,2144.051495,2144.051495,2144.051495,2144.051495,2144.051495,2144.051494,2144.051494,2144.051494,
   ** Warning ** SimHVAC: Maximum iterations (20) exceeded for all HVAC loops, at ANNUAL, 03/15 15:35 - 15:40
   **   ~~~   ** The solution for one or more of the Air Loop HVAC systems did not appear to converge
   **   ~~~   ** Air System Named = CENTRAL SYSTEM did not converge for mass flow rate
   **   ~~~   ** Check values should be zero. Most Recent values listed first.
   **   ~~~   ** Demand-to-Supply interface mass flow rate check value iteration history trace: 7.625084E-002,7.625084E-002,7.625084E-002,7.625084E-002,7.625084E-002,7.625084E-002,7.625084E-002,7.625084E-002,7.625084E-002,7.625084E-002,
   **   ~~~   ** Supply-to-demand interface deck 1 mass flow rate check value iteration history trace: 7.625084E-002,7.625084E-002,7.625084E-002,7.625084E-002,7.625084E-002,7.625084E-002,7.625084E-002,7.625084E-002,7.625084E-002,7.625084E-002,
   **   ~~~   ** Air System Named = CENTRAL SYSTEM did not converge for energy
   **   ~~~   ** Check values should be zero. Most Recent values listed first.
   **   ~~~   ** Demand-to-Supply interface energy check value iteration history trace: 1508.964370,1508.964370,1508.964370,1508.964370,1508.964370,1508.964370,1508.964370,1508.964370,1508.964370,1508.964369,
   **   ~~~   ** Supply-to-demand interface deck 1 energy check value iteration history trace: 2558.976037,2558.976037,2558.976036,2558.976036,2558.976036,2558.976036,2558.976036,2558.976036,2558.976036,2558.976036,
   ************* Simulation Error Summary *************
   ** Warning ** The following Report Variables were requested but not generated -- check.rdd file
   **   ~~~   ** Either the IDF did not contain these elements, the variable name is misspelled,
   **   ~~~   ** or the requested variable is an advanced output which requires Output : Diagnostics, DisplayAdvancedReportVariables;
   ************* Key=*, VarName=BASEBOARD TOTAL HEATING ENERGY, Frequency=
   ************* Key=*, VarName=WATER HEATER NATURALGAS ENERGY, Frequency=
   ************* Key=*, VarName=COOLING COIL TOTAL HEATING ENERGY, Frequency=
   ************* There are 34 unused schedules in input.
   ************* There are 388 unused week schedules in input.
   ************* There are 396 unused day schedules in input.
   ************* Use Output:Diagnostics,DisplayUnusedSchedules; to see them.
   *************
   ************* ===== Recurring Error Summary =====
   ************* The following recurring error messages occurred.
   *************
   *************  ** Warning ** "TOTAL HOT WATER LOAD" - Target water temperature should be less than or equal to the hot water temperature error continues...
   *************  **   ~~~   **   This error occurred 122437 total times;
   *************  **   ~~~   **   during Warmup 0 times;
   *************  **   ~~~   **   during Sizing 0 times.
   *************  **   ~~~   **   Max=13.206066  Min=1.807291E-003
   *************
   *************  ** Warning ** Temperature out of range [-100. to 200.] (PsyPsatFnTemp)
   *************  **   ~~~   **   This error occurred 1 total times;
   *************  **   ~~~   **   during Warmup 0 times;
   *************  **   ~~~   **   during Sizing 0 times.
   *************  **   ~~~   **   Max=-323.735031 C  Min=-323.735031 C
   *************
   *************  ** Warning ** SimHVAC: Exceeding Maximum iterations for all HVAC loops, during ANNUAL continues
   *************  **   ~~~   **   This error occurred 17 total times;
   *************  **   ~~~   **   during Warmup 0 times;
   *************  **   ~~~   **   during Sizing 0 times.
   *************
   *************
   ************* ===== Final Error Summary =====
   ************* The following error categories occurred.  Consider correcting or noting.
   ************* Nominally Unused Constructions
   ************* ..The nominally unused constructions warning is provided to alert you to potential conditions that can cause
   ************* ..extra time during simulation. Each construction is calculated by the algorithm indicated in the HeatBalanceAlgorithm
   ************* ..object. You may remove the constructions indicated (when you use the DisplayExtraWarnings option).
   *************
   ************* EnergyPlus Warmup Error Summary. During Warmup: 1 Warning; 0 Severe Errors.
   ************* EnergyPlus Sizing Error Summary. During Sizing: 4 Warning; 0 Severe Errors.
   ************* EnergyPlus Completed Successfully-- 122486 Warning; 0 Severe Errors; Elapsed Time=00hr 01min 20.51sec
