Program Version,EnergyPlus, Version 22.2.0-c249759bad, YMD=2023.09.01 14:24,
   ************* Beginning Zone Sizing Calculations
   ** Warning ** ProcessScheduleInput: Schedule:Constant="ALWAYS ON DISCRETE", Schedule Type Limits Name="ONOFF" not found -- will not be validated
   ** Warning ** Foundation:Kiva="KIVA FOUNDATION", no Interior Horizontal Insulation Material Name defined
   **   ~~~   ** Interior Horizontal Insulation Depth will not be used.
   ** Warning ** CheckUsedConstructions: There are 15 nominally unused constructions in input.
   **   ~~~   ** Each Unused construction is shown.
   ************* Construction=INTERIOR FLOOR
   ************* Construction=INTERIOR WINDOW
   ************* Construction=EXTERIOR DOOR
   ************* Construction=INTERIOR DOOR
   ************* Construction=GABLE CONSTRUCTION
   ************* Construction=CRAWL_FLOOR
   ************* Construction=INSULATED PIPE
   ************* Construction=PLAIN PIPE
   ************* Construction=TDD PIPE
   ************* Construction=TDD DOME
   ************* Construction=TDD DIFFUSER
   ************* Construction=CRAWL WALL
   ************* Construction=CEILING-FLOOR-LAYER
   ************* Construction=SLAB CONSTRUCTION W FULL R10 INSULATION
   ************* Construction=SLAB CONSTRUCTION W FULL R5 INSULATION
   ** Warning ** GetDXCoils: Coil:Heating:DX:SingleSpeed="DX_HEATING_COIL" curve values
   **   ~~~   ** ... Defrost Energy Input Ratio Function of Temperature Curve Name = DEFROSTEIR output is not equal to 1.0 (+ or - 10%) at rated conditions.
   **   ~~~   ** ... Curve output at rated conditions = 0.152
   ** Severe  ** WaterHeater:HeatPump:WrappedCondenser="WATER HEATER":
   **   ~~~   ** The HPWH's air inlet node name = ZONE EXHAUST NODE was not properly specified 
   **   ~~~   ** as an exhaust air node for zone = CRAWLSPACE in a ZoneHVAC:EquipmentConnections object.
   ** Severe  ** WaterHeater:HeatPump:WrappedCondenser="WATER HEATER":
   **   ~~~   ** The HPWH's air outlet node name = HPWH ZONE INLET NODE was not properly specified 
   **   ~~~   ** as an inlet air node for zone = CRAWLSPACE in a ZoneHVAC:EquipmentConnections object.
   ** Severe  ** WaterHeater:HeatPump:WrappedCondenser = WATER HEATER:
   **   ~~~   ** Heat pump water heater type and name must be listed in the correct ZoneHVAC:EquipmentList object when Inlet Air Configuration is equal to ZoneAirOnly or ZoneAndOutdoorAir.
   ************* Beginning System Sizing Calculations
   ************* Beginning Plant Sizing Calculations
   ** Warning ** SizeDXCoil Coil:Cooling:DX:SingleSpeed DX_COOLING_COIL
   **   ~~~   ** ...Gross Rated Total Cooling Capacity [W] will be limited by the maximum rated volume flow per rated total capacity ratio.
   **   ~~~   ** ...DX coil volume flow rate ( m3/s ) = 0.302975
   **   ~~~   ** ...Requested capacity ( W ) = 4626.952
   **   ~~~   ** ...Requested flow/capacity ratio ( m3/s/W ) = 6.548E-005
   **   ~~~   ** ...Maximum flow/capacity ratio ( m3/s/W ) = 6.041E-005
   **   ~~~   ** ...Adjusted capacity ( W ) = 5015.327
   ** Warning ** Coil:WaterHeating:AirToWaterHeatPump:Wrapped "HEAT PUMP WATER HEATER EVAPORATOR": Rated air volume flow rate per watt of rated total water heating capacity is out of range
   **   ~~~   ** Min Rated Vol Flow Per Watt=[4.027E-005], Rated Vol Flow Per Watt=[1.386E-004], Max Rated Vol Flow Per Watt=[8.056E-005]. See Input-Output Reference Manual for valid range.
   ** Warning ** Water heater = WATER HEATER TANK:  Recovery Efficiency and Energy Factor could not be calculated during the test for standard ratings
   **   ~~~   ** Setpoint was never recovered and/or heater never turned on
   ** Warning ** Check input. Pump nominal power or motor efficiency is set to 0, for pump=MAINS PRESSURE
   ** Warning ** Output:Meter: invalid Key Name="ELECTRIC_RANGE:INTERIOREQUIPMENT:ELECTRICITY" - not found.
   ** Warning ** Output:Meter: invalid Key Name="ELECTRIC_DRYER:INTERIOREQUIPMENT:ELECTRICITY" - not found.
   ** Warning ** Output:Meter: invalid Key Name="HEATRECOVERY:ELECTRICITY" - not found.
   ** Warning ** Output:Meter: invalid Key Name="HEATING:NATURALGAS" - not found.
   ** Warning ** Output:Meter: invalid Key Name="WATERSYSTEMS:NATURALGAS" - not found.
   ** Warning ** Output:Meter: invalid Key Name="PROPANE:FACILITY" - not found.
   ** Warning ** Output:Meter: invalid Key Name="HEATING:PROPANE" - not found.
   ************* Testing Individual Branch Integrity
   ************* All Branches passed integrity testing
   ************* Testing Individual Supply Air Path Integrity
   ************* All Supply Air Paths passed integrity testing
   ************* Testing Individual Return Air Path Integrity
   ************* All Return Air Paths passed integrity testing
   ************* No node connection errors were found.
   ************* Beginning Simulation
   ** Warning ** AirflowNetwork::Solver::validate_distribution: Heat pump water heater is simulated along with an AirflowNetwork but is not included in the AirflowNetwork.
   ** Warning ** CalcEquipmentFlowRates: "TOTAL HOT WATER LOAD" - Target water temperature is greater than the hot water temperature by (1.65 C)
   **   ~~~   **  Environment=EXTREME_WINTER, at Simulation time=02/15 06:00 - 06:15
   **   ~~~   ** ...target water temperature     = 53.33 C
   **   ~~~   ** ...hot water temperature        = 51.68 C
   **   ~~~   ** ...Target water temperature should be less than or equal to the hot water temperature. Verify temperature setpoints and schedules.
   ** Warning ** SimHVAC: Maximum iterations (20) exceeded for all HVAC loops, at EXTREME_WINTER, 02/16 08:20 - 08:25
   **   ~~~   ** The solution for one or more of the Air Loop HVAC systems did not appear to converge
   **   ~~~   ** Air System Named = CENTRAL SYSTEM did not converge for mass flow rate
   **   ~~~   ** Check values should be zero. Most Recent values listed first.
   **   ~~~   ** Demand-to-Supply interface mass flow rate check value iteration history trace: 7.501683E-002,7.501683E-002,7.501683E-002,7.501683E-002,7.501683E-002,7.501683E-002,7.501683E-002,7.501683E-002,7.501683E-002,7.501683E-002,
   **   ~~~   ** Supply-to-demand interface deck 1 mass flow rate check value iteration history trace: 7.501683E-002,7.501683E-002,7.501683E-002,7.501683E-002,7.501683E-002,7.501683E-002,7.501683E-002,7.501683E-002,7.501683E-002,7.501683E-002,
   **   ~~~   ** Air System Named = CENTRAL SYSTEM did not converge for energy
   **   ~~~   ** Check values should be zero. Most Recent values listed first.
   **   ~~~   ** Demand-to-Supply interface energy check value iteration history trace: 1480.397213,1480.397213,1480.397213,1480.397213,1480.397212,1480.397212,1480.397212,1480.397212,1480.397212,1480.397212,
   **   ~~~   ** Supply-to-demand interface deck 1 energy check value iteration history trace: 2686.003964,2686.003964,2686.003964,2686.003964,2686.003964,2686.003964,2686.003964,2686.003964,2686.003963,2686.003963,
   ** Warning ** SimHVAC: Maximum iterations (20) exceeded for all HVAC loops, at ANNUAL, 01/01 10:45 - 10:49
   **   ~~~   ** The solution for one or more of the Air Loop HVAC systems did not appear to converge
   **   ~~~   ** Air System Named = CENTRAL SYSTEM did not converge for mass flow rate
   **   ~~~   ** Check values should be zero. Most Recent values listed first.
   **   ~~~   ** Demand-to-Supply interface mass flow rate check value iteration history trace: 5.375267E-002,5.375267E-002,5.375267E-002,5.375267E-002,5.375267E-002,5.375267E-002,5.375267E-002,5.375267E-002,5.375267E-002,5.375267E-002,
   **   ~~~   ** Supply-to-demand interface deck 1 mass flow rate check value iteration history trace: 5.375267E-002,5.375267E-002,5.375267E-002,5.375267E-002,5.375267E-002,5.375267E-002,5.375267E-002,5.375267E-002,5.375267E-002,5.375267E-002,
   **   ~~~   ** Air System Named = CENTRAL SYSTEM did not converge for energy
   **   ~~~   ** Check values should be zero. Most Recent values listed first.
   **   ~~~   ** Demand-to-Supply interface energy check value iteration history trace: 1062.353962,1062.353962,1062.353962,1062.353962,1062.353962,1062.353962,1062.353962,1062.353962,1062.353962,1062.353962,
   **   ~~~   ** Supply-to-demand interface deck 1 energy check value iteration history trace: 1957.508093,1957.508093,1957.508093,1957.508093,1957.508093,1957.508093,1957.508092,1957.508092,1957.508092,1957.508092,
   ** Warning ** SimHVAC: Maximum iterations (20) exceeded for all HVAC loops, at ANNUAL, 01/19 06:00 - 06:15
   **   ~~~   ** The solution for one or more of the Air Loop HVAC systems did not appear to converge
   **   ~~~   ** Air System Named = CENTRAL SYSTEM did not converge for mass flow rate
   **   ~~~   ** Check values should be zero. Most Recent values listed first.
   **   ~~~   ** Demand-to-Supply interface mass flow rate check value iteration history trace: 6.776459E-002,6.776459E-002,6.776459E-002,6.776459E-002,6.776459E-002,6.776459E-002,6.776459E-002,6.776459E-002,6.776459E-002,6.776459E-002,
   **   ~~~   ** Supply-to-demand interface deck 1 mass flow rate check value iteration history trace: 6.776459E-002,6.776459E-002,6.776459E-002,6.776459E-002,6.776459E-002,6.776459E-002,6.776459E-002,6.776459E-002,6.776459E-002,6.776459E-002,
   **   ~~~   ** Air System Named = CENTRAL SYSTEM did not converge for energy
   **   ~~~   ** Check values should be zero. Most Recent values listed first.
   **   ~~~   ** Demand-to-Supply interface energy check value iteration history trace: 1345.713087,1345.713086,1345.713086,1345.713086,1345.713086,1345.713086,1345.713086,1345.713086,1345.713086,1345.713086,
   **   ~~~   ** Supply-to-demand interface deck 1 energy check value iteration history trace: 2380.447767,2380.447767,2380.447767,2380.447767,2380.447767,2380.447767,2380.447767,2380.447766,2380.447766,2380.447766,
   ** Warning ** SimHVAC: Maximum iterations (20) exceeded for all HVAC loops, at ANNUAL, 01/30 07:39 - 07:42
   **   ~~~   ** The solution for one or more of the Air Loop HVAC systems did not appear to converge
   **   ~~~   ** Air System Named = CENTRAL SYSTEM did not converge for mass flow rate
   **   ~~~   ** Check values should be zero. Most Recent values listed first.
   **   ~~~   ** Demand-to-Supply interface mass flow rate check value iteration history trace: 6.287631E-002,6.287631E-002,6.287631E-002,6.287631E-002,6.287631E-002,6.287631E-002,6.287631E-002,6.287631E-002,6.287631E-002,6.287631E-002,
   **   ~~~   ** Supply-to-demand interface deck 1 mass flow rate check value iteration history trace: 6.287631E-002,6.287631E-002,6.287631E-002,6.287631E-002,6.287631E-002,6.287631E-002,6.287631E-002,6.287631E-002,6.287631E-002,6.287631E-002,
   **   ~~~   ** Air System Named = CENTRAL SYSTEM did not converge for energy
   **   ~~~   ** Check values should be zero. Most Recent values listed first.
   **   ~~~   ** Demand-to-Supply interface energy check value iteration history trace: 1245.519756,1245.519756,1245.519756,1245.519756,1245.519756,1245.519756,1245.519756,1245.519756,1245.519756,1245.519755,
   **   ~~~   ** Supply-to-demand interface deck 1 energy check value iteration history trace: 2168.321467,2168.321467,2168.321467,2168.321467,2168.321467,2168.321467,2168.321467,2168.321467,2168.321467,2168.321467,
   ** Warning ** SimHVAC: Maximum iterations (20) exceeded for all HVAC loops, at ANNUAL, 02/16 07:30 - 07:45
   **   ~~~   ** The solution for one or more of the Air Loop HVAC systems did not appear to converge
   **   ~~~   ** Air System Named = CENTRAL SYSTEM did not converge for mass flow rate
   **   ~~~   ** Check values should be zero. Most Recent values listed first.
   **   ~~~   ** Demand-to-Supply interface mass flow rate check value iteration history trace: 7.418276E-002,7.418276E-002,7.418276E-002,7.418276E-002,7.418276E-002,7.418276E-002,7.418276E-002,7.418276E-002,7.418276E-002,7.418276E-002,
   **   ~~~   ** Supply-to-demand interface deck 1 mass flow rate check value iteration history trace: 7.418276E-002,7.418276E-002,7.418276E-002,7.418276E-002,7.418276E-002,7.418276E-002,7.418276E-002,7.418276E-002,7.418276E-002,7.418276E-002,
   **   ~~~   ** Air System Named = CENTRAL SYSTEM did not converge for energy
   **   ~~~   ** Check values should be zero. Most Recent values listed first.
   **   ~~~   ** Demand-to-Supply interface energy check value iteration history trace: 1469.964334,1469.964334,1469.964334,1469.964334,1469.964334,1469.964334,1469.964334,1469.964334,1469.964334,1469.964334,
   **   ~~~   ** Supply-to-demand interface deck 1 energy check value iteration history trace: 2627.793697,2627.793697,2627.793696,2627.793696,2627.793696,2627.793696,2627.793696,2627.793696,2627.793696,2627.793696,
   ** Warning ** SimHVAC: Maximum iterations (20) exceeded for all HVAC loops, at ANNUAL, 02/17 07:08 - 07:11
   **   ~~~   ** The solution for one or more of the Air Loop HVAC systems did not appear to converge
   **   ~~~   ** Air System Named = CENTRAL SYSTEM did not converge for mass flow rate
   **   ~~~   ** Check values should be zero. Most Recent values listed first.
   **   ~~~   ** Demand-to-Supply interface mass flow rate check value iteration history trace: 6.791302E-002,6.791302E-002,6.791302E-002,6.791302E-002,6.791302E-002,6.791302E-002,6.791302E-002,6.791302E-002,6.791302E-002,6.791302E-002,
   **   ~~~   ** Supply-to-demand interface deck 1 mass flow rate check value iteration history trace: 6.791302E-002,6.791302E-002,6.791302E-002,6.791302E-002,6.791302E-002,6.791302E-002,6.791302E-002,6.791302E-002,6.791302E-002,6.791302E-002,
   **   ~~~   ** Air System Named = CENTRAL SYSTEM did not converge for energy
   **   ~~~   ** Check values should be zero. Most Recent values listed first.
   **   ~~~   ** Demand-to-Supply interface energy check value iteration history trace: 1335.473325,1335.473324,1335.473324,1335.473324,1335.473324,1335.473324,1335.473324,1335.473324,1335.473324,1335.473324,
   **   ~~~   ** Supply-to-demand interface deck 1 energy check value iteration history trace: 2435.589214,2435.589214,2435.589214,2435.589213,2435.589213,2435.589213,2435.589213,2435.589213,2435.589213,2435.589213,
   ** Warning ** SimHVAC: Maximum iterations (20) exceeded for all HVAC loops, at ANNUAL, 03/01 07:08 - 07:15
   **   ~~~   ** The solution for one or more of the Air Loop HVAC systems did not appear to converge
   **   ~~~   ** Air System Named = CENTRAL SYSTEM did not converge for mass flow rate
   **   ~~~   ** Check values should be zero. Most Recent values listed first.
   **   ~~~   ** Demand-to-Supply interface mass flow rate check value iteration history trace: 8.486139E-002,8.486139E-002,8.486139E-002,8.486139E-002,8.486139E-002,8.486139E-002,8.486139E-002,8.486139E-002,8.486139E-002,8.486139E-002,
   **   ~~~   ** Supply-to-demand interface deck 1 mass flow rate check value iteration history trace: 8.486139E-002,8.486139E-002,8.486139E-002,8.486139E-002,8.486139E-002,8.486139E-002,8.486139E-002,8.486139E-002,8.486139E-002,8.486139E-002,
   **   ~~~   ** Air System Named = CENTRAL SYSTEM did not converge for energy
   **   ~~~   ** Check values should be zero. Most Recent values listed first.
   **   ~~~   ** Demand-to-Supply interface energy check value iteration history trace: 1681.123385,1681.123385,1681.123384,1681.123384,1681.123384,1681.123384,1681.123384,1681.123384,1681.123384,1681.123384,
   **   ~~~   ** Supply-to-demand interface deck 1 energy check value iteration history trace: 2861.526452,2861.526452,2861.526451,2861.526451,2861.526451,2861.526451,2861.526451,2861.526451,2861.526451,2861.526450,
   ** Warning ** SimHVAC: Maximum iterations (20) exceeded for all HVAC loops, at ANNUAL, 03/16 19:53 - 20:00
   **   ~~~   ** The solution for one or more of the Air Loop HVAC systems did not appear to converge
   **   ~~~   ** Air System Named = CENTRAL SYSTEM did not converge for mass flow rate
   **   ~~~   ** Check values should be zero. Most Recent values listed first.
   **   ~~~   ** Demand-to-Supply interface mass flow rate check value iteration history trace: 0.158305,0.158305,0.158305,0.158305,0.158305,0.158305,0.158305,0.158305,0.158305,0.158305,
   **   ~~~   ** Supply-to-demand interface deck 1 mass flow rate check value iteration history trace: 0.158305,0.158305,0.158305,0.158305,0.158305,0.158305,0.158305,0.158305,0.158305,0.158305,
   **   ~~~   ** Air System Named = CENTRAL SYSTEM did not converge for energy
   **   ~~~   ** Check values should be zero. Most Recent values listed first.
   **   ~~~   ** Demand-to-Supply interface energy check value iteration history trace: 3734.739942,3734.739943,3734.739943,3734.739944,3734.739944,3734.739945,3734.739945,3734.739946,3734.739946,3734.739947,
   **   ~~~   ** Supply-to-demand interface deck 1 energy check value iteration history trace: 1883.294554,1883.294555,1883.294555,1883.294555,1883.294555,1883.294556,1883.294556,1883.294556,1883.294556,1883.294557,
