Program Version,EnergyPlus, Version 22.2.0-c249759bad, YMD=2023.09.01 20:10,
   ************* Beginning Zone Sizing Calculations
   ** Warning ** ProcessScheduleInput: Schedule:Constant="ALWAYS ON DISCRETE", Schedule Type Limits Name="ONOFF" not found -- will not be validated
   ** Warning ** Foundation:Kiva="KIVA FOUNDATION", no Interior Horizontal Insulation Material Name defined
   **   ~~~   ** Interior Horizontal Insulation Depth will not be used.
   ** Warning ** CheckUsedConstructions: There are 15 nominally unused constructions in input.
   **   ~~~   ** Each Unused construction is shown.
   ************* Construction=INTERIOR FLOOR
   ************* Construction=INTERIOR WINDOW
   ************* Construction=EXTERIOR DOOR
   ************* Construction=INTERIOR DOOR
   ************* Construction=GABLE CONSTRUCTION
   ************* Construction=CRAWL_FLOOR
   ************* Construction=INSULATED PIPE
   ************* Construction=PLAIN PIPE
   ************* Construction=TDD PIPE
   ************* Construction=TDD DOME
   ************* Construction=TDD DIFFUSER
   ************* Construction=CRAWL WALL
   ************* Construction=CEILING-FLOOR-LAYER
   ************* Construction=SLAB CONSTRUCTION W FULL R10 INSULATION
   ************* Construction=SLAB CONSTRUCTION W FULL R5 INSULATION
   ** Warning ** GetDXCoils: Coil:Heating:DX:SingleSpeed="DX_HEATING_COIL" curve values
   **   ~~~   ** ... Defrost Energy Input Ratio Function of Temperature Curve Name = DEFROSTEIR output is not equal to 1.0 (+ or - 10%) at rated conditions.
   **   ~~~   ** ... Curve output at rated conditions = 0.152
   ************* Beginning System Sizing Calculations
   ************* Beginning Plant Sizing Calculations
   ** Warning ** Coil:WaterHeating:AirToWaterHeatPump:Wrapped "HEAT PUMP WATER HEATER EVAPORATOR": Rated air volume flow rate per watt of rated total water heating capacity is out of range
   **   ~~~   ** Min Rated Vol Flow Per Watt=[4.027E-005], Rated Vol Flow Per Watt=[1.510E-004], Max Rated Vol Flow Per Watt=[8.056E-005]. See Input-Output Reference Manual for valid range.
   ************* SizeFan: : Potential issue with equipment sizing for Fan:OnOff HEAT PUMP WATER HEATER FAN
   **   ~~~   ** User-Specified Maximum Flow Rate [m3/s] = 0.22653
   **   ~~~   ** differs from Design Size Maximum Flow Rate [m3/s] = 7.55250E-002
   **   ~~~   ** This may, or may not, indicate mismatched component sizes.
   **   ~~~   ** Verify that the value entered is intended and is consistent with other components.
   ** Warning ** Water heater = WATER HEATER TANK:  Recovery Efficiency and Energy Factor could not be calculated during the test for standard ratings
   **   ~~~   ** Setpoint was never recovered and/or heater never turned on
   ** Warning ** Check input. Pump nominal power or motor efficiency is set to 0, for pump=MAINS PRESSURE
   ** Warning ** Output:Meter: invalid Key Name="ELECTRIC_RANGE:INTERIOREQUIPMENT:ELECTRICITY" - not found.
   ** Warning ** Output:Meter: invalid Key Name="ELECTRIC_DRYER:INTERIOREQUIPMENT:ELECTRICITY" - not found.
   ** Warning ** Output:Meter: invalid Key Name="HEATRECOVERY:ELECTRICITY" - not found.
   ** Warning ** Output:Meter: invalid Key Name="HEATING:NATURALGAS" - not found.
   ** Warning ** Output:Meter: invalid Key Name="WATERSYSTEMS:NATURALGAS" - not found.
   ** Warning ** Output:Meter: invalid Key Name="PROPANE:FACILITY" - not found.
   ** Warning ** Output:Meter: invalid Key Name="HEATING:PROPANE" - not found.
   ************* Testing Individual Branch Integrity
   ************* All Branches passed integrity testing
   ************* Testing Individual Supply Air Path Integrity
   ************* All Supply Air Paths passed integrity testing
   ************* Testing Individual Return Air Path Integrity
   ************* All Return Air Paths passed integrity testing
   ************* No node connection errors were found.
   ************* Beginning Simulation
   ** Warning ** AirflowNetwork::Solver::validate_distribution: Heat pump water heater is simulated along with an AirflowNetwork but is not included in the AirflowNetwork.
   ** Warning ** CalcEquipmentFlowRates: "TOTAL HOT WATER LOAD" - Target water temperature is greater than the hot water temperature by (3.58 C)
   **   ~~~   **  Environment=EXTREME_WINTER, at Simulation time=01/27 07:00 - 07:15
   **   ~~~   ** ...target water temperature     = 53.33 C
   **   ~~~   ** ...hot water temperature        = 49.75 C
   **   ~~~   ** ...Target water temperature should be less than or equal to the hot water temperature. Verify temperature setpoints and schedules.
   ** Warning ** SimHVAC: Maximum iterations (20) exceeded for all HVAC loops, at ANNUAL, 01/23 16:00 - 16:08
   **   ~~~   ** The solution for one or more of the Air Loop HVAC systems did not appear to converge
   **   ~~~   ** Air System Named = CENTRAL SYSTEM did not converge for mass flow rate
   **   ~~~   ** Check values should be zero. Most Recent values listed first.
   **   ~~~   ** Demand-to-Supply interface mass flow rate check value iteration history trace: 9.700405E-002,9.700405E-002,9.700405E-002,9.700405E-002,9.700405E-002,9.700405E-002,9.700405E-002,9.700405E-002,9.700405E-002,9.700405E-002,
   **   ~~~   ** Supply-to-demand interface deck 1 mass flow rate check value iteration history trace: 9.700405E-002,9.700405E-002,9.700405E-002,9.700405E-002,9.700405E-002,9.700405E-002,9.700405E-002,9.700405E-002,9.700405E-002,9.700405E-002,
   **   ~~~   ** Air System Named = CENTRAL SYSTEM did not converge for energy
   **   ~~~   ** Check values should be zero. Most Recent values listed first.
   **   ~~~   ** Demand-to-Supply interface energy check value iteration history trace: 1916.921486,1916.921486,1916.921486,1916.921486,1916.921486,1916.921486,1916.921486,1916.921486,1916.921486,1916.921485,
   **   ~~~   ** Supply-to-demand interface deck 1 energy check value iteration history trace: 3043.598079,3043.598079,3043.598079,3043.598079,3043.598079,3043.598079,3043.598078,3043.598078,3043.598078,3043.598078,
   ** Warning ** SimHVAC: Maximum iterations (20) exceeded for all HVAC loops, at ANNUAL, 02/13 13:53 - 14:00
   **   ~~~   ** The solution for one or more of the Air Loop HVAC systems did not appear to converge
   **   ~~~   ** Air System Named = CENTRAL SYSTEM did not converge for mass flow rate
   **   ~~~   ** Check values should be zero. Most Recent values listed first.
   **   ~~~   ** Demand-to-Supply interface mass flow rate check value iteration history trace: 2.565741E-002,2.565741E-002,2.565741E-002,2.565741E-002,2.565741E-002,2.565741E-002,2.565741E-002,2.565741E-002,2.565741E-002,2.565741E-002,
   **   ~~~   ** Supply-to-demand interface deck 1 mass flow rate check value iteration history trace: 2.565741E-002,2.565741E-002,2.565741E-002,2.565741E-002,2.565741E-002,2.565741E-002,2.565741E-002,2.565741E-002,2.565741E-002,2.565741E-002,
   **   ~~~   ** Air System Named = CENTRAL SYSTEM did not converge for energy
   **   ~~~   ** Check values should be zero. Most Recent values listed first.
   **   ~~~   ** Demand-to-Supply interface energy check value iteration history trace: 508.469543,508.469543,508.469543,508.469543,508.469543,508.469543,508.469543,508.469543,508.469543,508.469543,
   **   ~~~   ** Supply-to-demand interface deck 1 energy check value iteration history trace: 930.139230,930.139230,930.139230,930.139230,930.139230,930.139230,930.139230,930.139230,930.139230,930.139230,
   ** Warning ** SimHVAC: Maximum iterations (20) exceeded for all HVAC loops, at ANNUAL, 03/04 22:30 - 22:45
   **   ~~~   ** The solution for one or more of the Air Loop HVAC systems did not appear to converge
   **   ~~~   ** Air System Named = CENTRAL SYSTEM did not converge for mass flow rate
   **   ~~~   ** Check values should be zero. Most Recent values listed first.
   **   ~~~   ** Demand-to-Supply interface mass flow rate check value iteration history trace: 7.978334E-002,7.978334E-002,7.978334E-002,7.978334E-002,7.978334E-002,7.978334E-002,7.978334E-002,7.978334E-002,7.978334E-002,7.978334E-002,
   **   ~~~   ** Supply-to-demand interface deck 1 mass flow rate check value iteration history trace: 7.978334E-002,7.978334E-002,7.978334E-002,7.978334E-002,7.978334E-002,7.978334E-002,7.978334E-002,7.978334E-002,7.978334E-002,7.978334E-002,
   **   ~~~   ** Air System Named = CENTRAL SYSTEM did not converge for energy
   **   ~~~   ** Check values should be zero. Most Recent values listed first.
   **   ~~~   ** Demand-to-Supply interface energy check value iteration history trace: 1490.881561,1490.881561,1490.881561,1490.881561,1490.881561,1490.881561,1490.881561,1490.881560,1490.881560,1490.881560,
   **   ~~~   ** Supply-to-demand interface deck 1 energy check value iteration history trace: 2460.347734,2460.347734,2460.347734,2460.347734,2460.347734,2460.347734,2460.347734,2460.347733,2460.347733,2460.347733,
   ** Warning ** SimHVAC: Maximum iterations (20) exceeded for all HVAC loops, at ANNUAL, 03/14 13:00 - 13:15
   **   ~~~   ** The solution for one or more of the Air Loop HVAC systems did not appear to converge
   **   ~~~   ** Air System Named = CENTRAL SYSTEM did not converge for mass flow rate
   **   ~~~   ** Check values should be zero. Most Recent values listed first.
   **   ~~~   ** Demand-to-Supply interface mass flow rate check value iteration history trace: 5.519379E-002,5.519379E-002,5.519379E-002,5.519379E-002,5.519379E-002,5.519379E-002,5.519379E-002,5.519379E-002,5.519379E-002,5.519379E-002,
   **   ~~~   ** Supply-to-demand interface deck 1 mass flow rate check value iteration history trace: 5.519379E-002,5.519379E-002,5.519379E-002,5.519379E-002,5.519379E-002,5.519379E-002,5.519379E-002,5.519379E-002,5.519379E-002,5.519379E-002,
   **   ~~~   ** Air System Named = CENTRAL SYSTEM did not converge for energy
   **   ~~~   ** Check values should be zero. Most Recent values listed first.
   **   ~~~   ** Demand-to-Supply interface energy check value iteration history trace: 1072.066446,1072.066446,1072.066445,1072.066445,1072.066445,1072.066445,1072.066445,1072.066445,1072.066444,1072.066444,
   **   ~~~   ** Supply-to-demand interface deck 1 energy check value iteration history trace: 2071.365993,2071.365993,2071.365992,2071.365992,2071.365992,2071.365991,2071.365991,2071.365991,2071.365990,2071.365990,
   **   ~~~   ** Node named ZONE INLET NODE shows oscillating temperatures across iterations with a repeated value of 37.348063
   **   ~~~   ** Node named ZONE INLET NODE temperature [C] iteration history trace (most recent first): 37.348063,37.348063,37.348063,37.348062,37.348062,37.348062,37.348061,37.348061,37.348061,37.348060,
   ** Warning ** SimHVAC: Maximum iterations (20) exceeded for all HVAC loops, at ANNUAL, 03/18 10:30 - 10:45
   **   ~~~   ** The solution for one or more of the Air Loop HVAC systems did not appear to converge
   **   ~~~   ** Air System Named = CENTRAL SYSTEM did not converge for mass flow rate
   **   ~~~   ** Check values should be zero. Most Recent values listed first.
   **   ~~~   ** Demand-to-Supply interface mass flow rate check value iteration history trace: 5.631904E-002,5.631904E-002,5.631904E-002,5.631904E-002,5.631904E-002,5.631904E-002,5.631904E-002,5.631904E-002,5.631904E-002,5.631904E-002,
   **   ~~~   ** Supply-to-demand interface deck 1 mass flow rate check value iteration history trace: 5.631904E-002,5.631904E-002,5.631904E-002,5.631904E-002,5.631904E-002,5.631904E-002,5.631904E-002,5.631904E-002,5.631904E-002,5.631904E-002,
   **   ~~~   ** Air System Named = CENTRAL SYSTEM did not converge for energy
   **   ~~~   ** Check values should be zero. Most Recent values listed first.
   **   ~~~   ** Demand-to-Supply interface energy check value iteration history trace: 1116.070309,1116.070308,1116.070308,1116.070308,1116.070308,1116.070308,1116.070308,1116.070308,1116.070308,1116.070308,
   **   ~~~   ** Supply-to-demand interface deck 1 energy check value iteration history trace: 2143.090149,2143.090149,2143.090149,2143.090149,2143.090149,2143.090149,2143.090149,2143.090148,2143.090148,2143.090148,
   ** Warning ** SimHVAC: Maximum iterations (20) exceeded for all HVAC loops, at ANNUAL, 03/19 00:38 - 00:45
   **   ~~~   ** The solution for one or more of the Air Loop HVAC systems did not appear to converge
   **   ~~~   ** Air System Named = CENTRAL SYSTEM did not converge for mass flow rate
   **   ~~~   ** Check values should be zero. Most Recent values listed first.
   **   ~~~   ** Demand-to-Supply interface mass flow rate check value iteration history trace: 6.980836E-002,6.980836E-002,6.980836E-002,6.980836E-002,6.980836E-002,6.980836E-002,6.980836E-002,6.980836E-002,6.980836E-002,6.980836E-002,
   **   ~~~   ** Supply-to-demand interface deck 1 mass flow rate check value iteration history trace: 6.980836E-002,6.980836E-002,6.980836E-002,6.980836E-002,6.980836E-002,6.980836E-002,6.980836E-002,6.980836E-002,6.980836E-002,6.980836E-002,
   **   ~~~   ** Air System Named = CENTRAL SYSTEM did not converge for energy
   **   ~~~   ** Check values should be zero. Most Recent values listed first.
   **   ~~~   ** Demand-to-Supply interface energy check value iteration history trace: 1302.674133,1302.674133,1302.674133,1302.674132,1302.674132,1302.674132,1302.674132,1302.674132,1302.674132,1302.674132,
   **   ~~~   ** Supply-to-demand interface deck 1 energy check value iteration history trace: 2120.077624,2120.077624,2120.077624,2120.077624,2120.077624,2120.077623,2120.077623,2120.077623,2120.077623,2120.077623,
   ** Warning ** SimHVAC: Maximum iterations (20) exceeded for all HVAC loops, at ANNUAL, 03/22 20:45 - 20:52
   **   ~~~   ** The solution for one or more of the Air Loop HVAC systems did not appear to converge
   **   ~~~   ** Air System Named = CENTRAL SYSTEM did not converge for mass flow rate
   **   ~~~   ** Check values should be zero. Most Recent values listed first.
   **   ~~~   ** Demand-to-Supply interface mass flow rate check value iteration history trace: 3.951917E-002,3.951917E-002,3.951917E-002,3.951917E-002,3.951917E-002,3.951917E-002,3.951917E-002,3.951917E-002,3.951917E-002,3.951917E-002,
   **   ~~~   ** Supply-to-demand interface deck 1 mass flow rate check value iteration history trace: 3.951917E-002,3.951917E-002,3.951917E-002,3.951917E-002,3.951917E-002,3.951917E-002,3.951917E-002,3.951917E-002,3.951917E-002,3.951917E-002,
   **   ~~~   ** Air System Named = CENTRAL SYSTEM did not converge for energy
   **   ~~~   ** Check values should be zero. Most Recent values listed first.
   **   ~~~   ** Demand-to-Supply interface energy check value iteration history trace: 789.546485,789.546485,789.546484,789.546484,789.546484,789.546484,789.546484,789.546484,789.546483,789.546483,
   **   ~~~   ** Supply-to-demand interface deck 1 energy check value iteration history trace: 1566.141939,1566.141939,1566.141938,1566.141938,1566.141938,1566.141937,1566.141937,1566.141937,1566.141936,1566.141936,
   **   ~~~   ** Node named ZONE INLET NODE shows oscillating temperatures across iterations with a repeated value of 39.438899
   **   ~~~   ** Node named ZONE INLET NODE temperature [C] iteration history trace (most recent first): 39.438899,39.438899,39.438898,39.438898,39.438898,39.438897,39.438897,39.438896,39.438896,39.438895,
   ** Warning ** SimHVAC: Maximum iterations (20) exceeded for all HVAC loops, at ANNUAL, 03/22 23:45 - 24:00
   **   ~~~   ** The solution for one or more of the Air Loop HVAC systems did not appear to converge
   **   ~~~   ** Air System Named = CENTRAL SYSTEM did not converge for mass flow rate
   **   ~~~   ** Check values should be zero. Most Recent values listed first.
   **   ~~~   ** Demand-to-Supply interface mass flow rate check value iteration history trace: 2.937885E-002,2.937885E-002,2.937885E-002,2.937885E-002,2.937885E-002,2.937885E-002,2.937885E-002,2.937885E-002,2.937885E-002,2.937885E-002,
   **   ~~~   ** Supply-to-demand interface deck 1 mass flow rate check value iteration history trace: 2.937885E-002,2.937885E-002,2.937885E-002,2.937885E-002,2.937885E-002,2.937885E-002,2.937885E-002,2.937885E-002,2.937885E-002,2.937885E-002,
   **   ~~~   ** Air System Named = CENTRAL SYSTEM did not converge for energy
   **   ~~~   ** Check values should be zero. Most Recent values listed first.
   **   ~~~   ** Demand-to-Supply interface energy check value iteration history trace: 549.131214,549.131214,549.131214,549.131214,549.131214,549.131214,549.131214,549.131213,549.131213,549.131213,
   **   ~~~   ** Supply-to-demand interface deck 1 energy check value iteration history trace: 1116.203317,1116.203317,1116.203316,1116.203316,1116.203316,1116.203316,1116.203316,1116.203316,1116.203315,1116.203315,
   **   ~~~   ** Node named ZONE INLET NODE shows oscillating temperatures across iterations with a repeated value of 37.810290
   **   ~~~   ** Node named ZONE INLET NODE temperature [C] iteration history trace (most recent first): 37.810290,37.810290,37.810289,37.810289,37.810289,37.810288,37.810288,37.810288,37.810288,37.810287,
   ** Warning ** SimHVAC: Maximum iterations (20) exceeded for all HVAC loops, at ANNUAL, 03/23 22:30 - 22:45
   **   ~~~   ** The solution for one or more of the Air Loop HVAC systems did not appear to converge
   **   ~~~   ** Air System Named = CENTRAL SYSTEM did not converge for mass flow rate
   **   ~~~   ** Check values should be zero. Most Recent values listed first.
   **   ~~~   ** Demand-to-Supply interface mass flow rate check value iteration history trace: 4.894350E-002,4.894350E-002,4.894350E-002,4.894350E-002,4.894350E-002,4.894350E-002,4.894350E-002,4.894350E-002,4.894350E-002,4.894350E-002,
   **   ~~~   ** Supply-to-demand interface deck 1 mass flow rate check value iteration history trace: 4.894350E-002,4.894350E-002,4.894350E-002,4.894350E-002,4.894350E-002,4.894350E-002,4.894350E-002,4.894350E-002,4.894350E-002,4.894350E-002,
   **   ~~~   ** Air System Named = CENTRAL SYSTEM did not converge for energy
   **   ~~~   ** Check values should be zero. Most Recent values listed first.
   **   ~~~   ** Demand-to-Supply interface energy check value iteration history trace: 915.203323,915.203323,915.203323,915.203323,915.203323,915.203323,915.203323,915.203322,915.203322,915.203322,
   **   ~~~   ** Supply-to-demand interface deck 1 energy check value iteration history trace: 1773.791907,1773.791907,1773.791907,1773.791906,1773.791906,1773.791906,1773.791906,1773.791905,1773.791905,1773.791905,
   **   ~~~   ** Node named ZONE INLET NODE shows oscillating temperatures across iterations with a repeated value of 36.066921
   **   ~~~   ** Node named ZONE INLET NODE temperature [C] iteration history trace (most recent first): 36.066921,36.066920,36.066920,36.066920,36.066919,36.066919,36.066919,36.066919,36.066918,36.066918,
   ** Warning ** SimHVAC: Maximum iterations (20) exceeded for all HVAC loops, at ANNUAL, 04/07 08:38 - 08:40
   **   ~~~   ** The solution for one or more of the Air Loop HVAC systems did not appear to converge
   **   ~~~   ** Air System Named = CENTRAL SYSTEM did not converge for mass flow rate
   **   ~~~   ** Check values should be zero. Most Recent values listed first.
   **   ~~~   ** Demand-to-Supply interface mass flow rate check value iteration history trace: 4.969035E-002,4.969035E-002,4.969035E-002,4.969035E-002,4.969035E-002,4.969035E-002,4.969035E-002,4.969035E-002,4.969035E-002,4.969035E-002,
   **   ~~~   ** Supply-to-demand interface deck 1 mass flow rate check value iteration history trace: 4.969035E-002,4.969035E-002,4.969035E-002,4.969035E-002,4.969035E-002,4.969035E-002,4.969035E-002,4.969035E-002,4.969035E-002,4.969035E-002,
   **   ~~~   ** Air System Named = CENTRAL SYSTEM did not converge for energy
   **   ~~~   ** Check values should be zero. Most Recent values listed first.
   **   ~~~   ** Demand-to-Supply interface energy check value iteration history trace: 980.930296,980.930296,980.930296,980.930296,980.930296,980.930296,980.930296,980.930296,980.930296,980.930295,
   **   ~~~   ** Supply-to-demand interface deck 1 energy check value iteration history trace: 1882.302027,1882.302027,1882.302027,1882.302027,1882.302027,1882.302027,1882.302027,1882.302026,1882.302026,1882.302026,
   ** Warning ** SimHVAC: Maximum iterations (20) exceeded for all HVAC loops, at ANNUAL, 04/28 22:45 - 23:00
   **   ~~~   ** The solution for one or more of the Air Loop HVAC systems did not appear to converge
   **   ~~~   ** Air System Named = CENTRAL SYSTEM did not converge for mass flow rate
   **   ~~~   ** Check values should be zero. Most Recent values listed first.
   **   ~~~   ** Demand-to-Supply interface mass flow rate check value iteration history trace: 4.658415E-002,4.658415E-002,4.658415E-002,4.658415E-002,4.658415E-002,4.658415E-002,4.658415E-002,4.658415E-002,4.658415E-002,4.658415E-002,
   **   ~~~   ** Supply-to-demand interface deck 1 mass flow rate check value iteration history trace: 4.658415E-002,4.658415E-002,4.658415E-002,4.658415E-002,4.658415E-002,4.658415E-002,4.658415E-002,4.658415E-002,4.658415E-002,4.658415E-002,
   **   ~~~   ** Air System Named = CENTRAL SYSTEM did not converge for energy
   **   ~~~   ** Check values should be zero. Most Recent values listed first.
   **   ~~~   ** Demand-to-Supply interface energy check value iteration history trace: 870.607468,870.607468,870.607468,870.607468,870.607468,870.607468,870.607468,870.607468,870.607468,870.607468,
   **   ~~~   ** Supply-to-demand interface deck 1 energy check value iteration history trace: 1637.925860,1637.925860,1637.925860,1637.925860,1637.925860,1637.925860,1637.925860,1637.925860,1637.925860,1637.925860,
   ** Warning ** SimHVAC: Maximum iterations (20) exceeded for all HVAC loops, at ANNUAL, 04/29 22:45 - 23:00
   **   ~~~   ** The solution for one or more of the Air Loop HVAC systems did not appear to converge
   **   ~~~   ** Air System Named = CENTRAL SYSTEM did not converge for mass flow rate
   **   ~~~   ** Check values should be zero. Most Recent values listed first.
   **   ~~~   ** Demand-to-Supply interface mass flow rate check value iteration history trace: 7.327157E-002,7.327157E-002,7.327157E-002,7.327157E-002,7.327157E-002,7.327157E-002,7.327157E-002,7.327157E-002,7.327157E-002,7.327157E-002,
   **   ~~~   ** Supply-to-demand interface deck 1 mass flow rate check value iteration history trace: 7.327157E-002,7.327157E-002,7.327157E-002,7.327157E-002,7.327157E-002,7.327157E-002,7.327157E-002,7.327157E-002,7.327157E-002,7.327157E-002,
   **   ~~~   ** Air System Named = CENTRAL SYSTEM did not converge for energy
   **   ~~~   ** Check values should be zero. Most Recent values listed first.
   **   ~~~   ** Demand-to-Supply interface energy check value iteration history trace: 1371.236547,1371.236547,1371.236547,1371.236547,1371.236547,1371.236547,1371.236547,1371.236547,1371.236547,1371.236546,
   **   ~~~   ** Supply-to-demand interface deck 1 energy check value iteration history trace: 2271.723062,2271.723062,2271.723062,2271.723062,2271.723062,2271.723062,2271.723062,2271.723061,2271.723061,2271.723061,
   ** Warning ** SimHVAC: Maximum iterations (20) exceeded for all HVAC loops, at ANNUAL, 05/01 08:32 - 08:35
   **   ~~~   ** The solution for one or more of the Air Loop HVAC systems did not appear to converge
   **   ~~~   ** Air System Named = CENTRAL SYSTEM did not converge for mass flow rate
   **   ~~~   ** Check values should be zero. Most Recent values listed first.
   **   ~~~   ** Demand-to-Supply interface mass flow rate check value iteration history trace: 5.741219E-002,5.741219E-002,5.741219E-002,5.741219E-002,5.741219E-002,5.741219E-002,5.741219E-002,5.741219E-002,5.741219E-002,5.741219E-002,
   **   ~~~   ** Supply-to-demand interface deck 1 mass flow rate check value iteration history trace: 5.741219E-002,5.741219E-002,5.741219E-002,5.741219E-002,5.741219E-002,5.741219E-002,5.741219E-002,5.741219E-002,5.741219E-002,5.741219E-002,
   **   ~~~   ** Air System Named = CENTRAL SYSTEM did not converge for energy
   **   ~~~   ** Check values should be zero. Most Recent values listed first.
   **   ~~~   ** Demand-to-Supply interface energy check value iteration history trace: 1137.761363,1137.761363,1137.761363,1137.761363,1137.761363,1137.761363,1137.761363,1137.761363,1137.761363,1137.761363,
   **   ~~~   ** Supply-to-demand interface deck 1 energy check value iteration history trace: 2141.613015,2141.613015,2141.613015,2141.613015,2141.613014,2141.613014,2141.613014,2141.613014,2141.613014,2141.613014,
   ** Warning ** SimHVAC: Maximum iterations (20) exceeded for all HVAC loops, at ANNUAL, 05/14 07:53 - 08:00
   **   ~~~   ** The solution for one or more of the Air Loop HVAC systems did not appear to converge
   **   ~~~   ** Air System Named = CENTRAL SYSTEM did not converge for mass flow rate
   **   ~~~   ** Check values should be zero. Most Recent values listed first.
   **   ~~~   ** Demand-to-Supply interface mass flow rate check value iteration history trace: 5.046156E-002,5.046156E-002,5.046156E-002,5.046156E-002,5.046156E-002,5.046156E-002,5.046156E-002,5.046156E-002,5.046156E-002,5.046156E-002,
   **   ~~~   ** Supply-to-demand interface deck 1 mass flow rate check value iteration history trace: 5.046156E-002,5.046156E-002,5.046156E-002,5.046156E-002,5.046156E-002,5.046156E-002,5.046156E-002,5.046156E-002,5.046156E-002,5.046156E-002,
   **   ~~~   ** Air System Named = CENTRAL SYSTEM did not converge for energy
   **   ~~~   ** Check values should be zero. Most Recent values listed first.
   **   ~~~   ** Demand-to-Supply interface energy check value iteration history trace: 1000.031303,1000.031303,1000.031303,1000.031303,1000.031303,1000.031303,1000.031303,1000.031303,1000.031303,1000.031303,
   **   ~~~   ** Supply-to-demand interface deck 1 energy check value iteration history trace: 1863.217081,1863.217081,1863.217081,1863.217081,1863.217081,1863.217081,1863.217081,1863.217081,1863.217081,1863.217080,
   ************* Simulation Error Summary *************
   ** Warning ** The following Report Variables were requested but not generated -- check.rdd file
   **   ~~~   ** Either the IDF did not contain these elements, the variable name is misspelled,
   **   ~~~   ** or the requested variable is an advanced output which requires Output : Diagnostics, DisplayAdvancedReportVariables;
   ************* Key=*, VarName=BASEBOARD TOTAL HEATING ENERGY, Frequency=
   ************* Key=*, VarName=WATER HEATER NATURALGAS ENERGY, Frequency=
   ************* Key=*, VarName=COOLING COIL TOTAL HEATING ENERGY, Frequency=
   ************* There are 34 unused schedules in input.
   ************* There are 388 unused week schedules in input.
   ************* There are 396 unused day schedules in input.
   ************* Use Output:Diagnostics,DisplayUnusedSchedules; to see them.
   *************
   ************* ===== Recurring Error Summary =====
   ************* The following recurring error messages occurred.
   *************
   *************  ** Warning ** "TOTAL HOT WATER LOAD" - Target water temperature should be less than or equal to the hot water temperature error continues...
   *************  **   ~~~   **   This error occurred 143481 total times;
   *************  **   ~~~   **   during Warmup 0 times;
   *************  **   ~~~   **   during Sizing 0 times.
   *************  **   ~~~   **   Max=19.553396  Min=1.152034E-003
   *************
   *************  ** Warning ** SimHVAC: Exceeding Maximum iterations for all HVAC loops, during ANNUAL continues
   *************  **   ~~~   **   This error occurred 12 total times;
   *************  **   ~~~   **   during Warmup 0 times;
   *************  **   ~~~   **   during Sizing 0 times.
   *************
   *************
   ************* ===== Final Error Summary =====
   ************* The following error categories occurred.  Consider correcting or noting.
   ************* Nominally Unused Constructions
   ************* ..The nominally unused constructions warning is provided to alert you to potential conditions that can cause
   ************* ..extra time during simulation. Each construction is calculated by the algorithm indicated in the HeatBalanceAlgorithm
   ************* ..object. You may remove the constructions indicated (when you use the DisplayExtraWarnings option).
   *************
   ************* EnergyPlus Warmup Error Summary. During Warmup: 1 Warning; 0 Severe Errors.
   ************* EnergyPlus Sizing Error Summary. During Sizing: 4 Warning; 0 Severe Errors.
   ************* EnergyPlus Completed Successfully-- 143524 Warning; 0 Severe Errors; Elapsed Time=00hr 01min 33.32sec
