Program Version,EnergyPlus, Version 22.2.0-c249759bad, YMD=2023.09.01 19:06,
   ************* Beginning Zone Sizing Calculations
   ** Warning ** ProcessScheduleInput: Schedule:Constant="ALWAYS ON DISCRETE", Schedule Type Limits Name="ONOFF" not found -- will not be validated
   ** Warning ** Foundation:Kiva="KIVA FOUNDATION", no Interior Horizontal Insulation Material Name defined
   **   ~~~   ** Interior Horizontal Insulation Depth will not be used.
   ** Warning ** CheckUsedConstructions: There are 15 nominally unused constructions in input.
   **   ~~~   ** Each Unused construction is shown.
   ************* Construction=INTERIOR FLOOR
   ************* Construction=INTERIOR WINDOW
   ************* Construction=EXTERIOR DOOR
   ************* Construction=INTERIOR DOOR
   ************* Construction=GABLE CONSTRUCTION
   ************* Construction=CRAWL_FLOOR
   ************* Construction=INSULATED PIPE
   ************* Construction=PLAIN PIPE
   ************* Construction=TDD PIPE
   ************* Construction=TDD DOME
   ************* Construction=TDD DIFFUSER
   ************* Construction=CRAWL WALL
   ************* Construction=CEILING-FLOOR-LAYER
   ************* Construction=SLAB CONSTRUCTION W FULL R10 INSULATION
   ************* Construction=SLAB CONSTRUCTION W FULL R5 INSULATION
   ** Warning ** GetDXCoils: Coil:Heating:DX:SingleSpeed="DX_HEATING_COIL" curve values
   **   ~~~   ** ... Defrost Energy Input Ratio Function of Temperature Curve Name = DEFROSTEIR output is not equal to 1.0 (+ or - 10%) at rated conditions.
   **   ~~~   ** ... Curve output at rated conditions = 0.152
   ************* Beginning System Sizing Calculations
   ************* Beginning Plant Sizing Calculations
   ** Warning ** SizeDXCoil Coil:Cooling:DX:SingleSpeed DX_COOLING_COIL
   **   ~~~   ** ...Gross Rated Total Cooling Capacity [W] will be limited by the maximum rated volume flow per rated total capacity ratio.
   **   ~~~   ** ...DX coil volume flow rate ( m3/s ) = 0.419882
   **   ~~~   ** ...Requested capacity ( W ) = 5033.351
   **   ~~~   ** ...Requested flow/capacity ratio ( m3/s/W ) = 8.342E-005
   **   ~~~   ** ...Maximum flow/capacity ratio ( m3/s/W ) = 6.041E-005
   **   ~~~   ** ...Adjusted capacity ( W ) = 6950.539
   ** Warning ** Coil:WaterHeating:AirToWaterHeatPump:Wrapped "HEAT PUMP WATER HEATER EVAPORATOR": Rated air volume flow rate per watt of rated total water heating capacity is out of range
   **   ~~~   ** Min Rated Vol Flow Per Watt=[4.027E-005], Rated Vol Flow Per Watt=[1.510E-004], Max Rated Vol Flow Per Watt=[8.056E-005]. See Input-Output Reference Manual for valid range.
   ************* SizeFan: : Potential issue with equipment sizing for Fan:OnOff HEAT PUMP WATER HEATER FAN
   **   ~~~   ** User-Specified Maximum Flow Rate [m3/s] = 0.22653
   **   ~~~   ** differs from Design Size Maximum Flow Rate [m3/s] = 7.55250E-002
   **   ~~~   ** This may, or may not, indicate mismatched component sizes.
   **   ~~~   ** Verify that the value entered is intended and is consistent with other components.
   ** Warning ** Water heater = WATER HEATER TANK:  Recovery Efficiency and Energy Factor could not be calculated during the test for standard ratings
   **   ~~~   ** Setpoint was never recovered and/or heater never turned on
   ** Warning ** Check input. Pump nominal power or motor efficiency is set to 0, for pump=MAINS PRESSURE
   ** Warning ** Output:Meter: invalid Key Name="ELECTRIC_RANGE:INTERIOREQUIPMENT:ELECTRICITY" - not found.
   ** Warning ** Output:Meter: invalid Key Name="ELECTRIC_DRYER:INTERIOREQUIPMENT:ELECTRICITY" - not found.
   ** Warning ** Output:Meter: invalid Key Name="HEATRECOVERY:ELECTRICITY" - not found.
   ** Warning ** Output:Meter: invalid Key Name="HEATING:NATURALGAS" - not found.
   ** Warning ** Output:Meter: invalid Key Name="WATERSYSTEMS:NATURALGAS" - not found.
   ** Warning ** Output:Meter: invalid Key Name="PROPANE:FACILITY" - not found.
   ** Warning ** Output:Meter: invalid Key Name="HEATING:PROPANE" - not found.
   ************* Testing Individual Branch Integrity
   ************* All Branches passed integrity testing
   ************* Testing Individual Supply Air Path Integrity
   ************* All Supply Air Paths passed integrity testing
   ************* Testing Individual Return Air Path Integrity
   ************* All Return Air Paths passed integrity testing
   ************* No node connection errors were found.
   ************* Beginning Simulation
   ** Warning ** AirflowNetwork::Solver::validate_distribution: Heat pump water heater is simulated along with an AirflowNetwork but is not included in the AirflowNetwork.
   ** Warning ** CalcEquipmentFlowRates: "TOTAL HOT WATER LOAD" - Target water temperature is greater than the hot water temperature by (1.19 C)
   **   ~~~   **  Environment=EXTREME_WINTER, at Simulation time=01/06 06:45 - 07:00
   **   ~~~   ** ...target water temperature     = 53.33 C
   **   ~~~   ** ...hot water temperature        = 52.15 C
   **   ~~~   ** ...Target water temperature should be less than or equal to the hot water temperature. Verify temperature setpoints and schedules.
   ** Warning ** SimHVAC: Maximum iterations (20) exceeded for all HVAC loops, at ANNUAL, 01/12 12:15 - 12:30
   **   ~~~   ** The solution for one or more of the Air Loop HVAC systems did not appear to converge
   **   ~~~   ** Air System Named = CENTRAL SYSTEM did not converge for mass flow rate
   **   ~~~   ** Check values should be zero. Most Recent values listed first.
   **   ~~~   ** Demand-to-Supply interface mass flow rate check value iteration history trace: 6.009389E-002,6.009389E-002,6.009389E-002,6.009389E-002,6.009389E-002,6.009389E-002,6.009389E-002,6.009389E-002,6.009389E-002,6.009389E-002,
   **   ~~~   ** Supply-to-demand interface deck 1 mass flow rate check value iteration history trace: 6.009389E-002,6.009389E-002,6.009389E-002,6.009389E-002,6.009389E-002,6.009389E-002,6.009389E-002,6.009389E-002,6.009389E-002,6.009389E-002,
   **   ~~~   ** Air System Named = CENTRAL SYSTEM did not converge for energy
   **   ~~~   ** Check values should be zero. Most Recent values listed first.
   **   ~~~   ** Demand-to-Supply interface energy check value iteration history trace: 1190.816133,1190.816133,1190.816133,1190.816133,1190.816133,1190.816133,1190.816133,1190.816133,1190.816133,1190.816133,
   **   ~~~   ** Supply-to-demand interface deck 1 energy check value iteration history trace: 2017.093446,2017.093446,2017.093446,2017.093446,2017.093446,2017.093445,2017.093445,2017.093445,2017.093445,2017.093445,
   ** Warning ** SimHVAC: Maximum iterations (20) exceeded for all HVAC loops, at ANNUAL, 01/17 10:49 - 10:51
   **   ~~~   ** The solution for one or more of the Air Loop HVAC systems did not appear to converge
   **   ~~~   ** Air System Named = CENTRAL SYSTEM did not converge for mass flow rate
   **   ~~~   ** Check values should be zero. Most Recent values listed first.
   **   ~~~   ** Demand-to-Supply interface mass flow rate check value iteration history trace: 5.037220E-002,5.037220E-002,5.037220E-002,5.037220E-002,5.037220E-002,5.037220E-002,5.037220E-002,5.037220E-002,5.037220E-002,5.037220E-002,
   **   ~~~   ** Supply-to-demand interface deck 1 mass flow rate check value iteration history trace: 5.037220E-002,5.037220E-002,5.037220E-002,5.037220E-002,5.037220E-002,5.037220E-002,5.037220E-002,5.037220E-002,5.037220E-002,5.037220E-002,
   **   ~~~   ** Air System Named = CENTRAL SYSTEM did not converge for energy
   **   ~~~   ** Check values should be zero. Most Recent values listed first.
   **   ~~~   ** Demand-to-Supply interface energy check value iteration history trace: 994.727511,994.727511,994.727511,994.727511,994.727511,994.727511,994.727511,994.727511,994.727511,994.727511,
   **   ~~~   ** Supply-to-demand interface deck 1 energy check value iteration history trace: 1851.422369,1851.422369,1851.422369,1851.422369,1851.422368,1851.422368,1851.422368,1851.422368,1851.422368,1851.422368,
   ** Warning ** SimHVAC: Maximum iterations (20) exceeded for all HVAC loops, at ANNUAL, 01/19 13:15 - 13:30
   **   ~~~   ** The solution for one or more of the Air Loop HVAC systems did not appear to converge
   **   ~~~   ** Air System Named = CENTRAL SYSTEM did not converge for mass flow rate
   **   ~~~   ** Check values should be zero. Most Recent values listed first.
   **   ~~~   ** Demand-to-Supply interface mass flow rate check value iteration history trace: 4.553147E-002,4.553147E-002,4.553147E-002,4.553147E-002,4.553147E-002,4.553147E-002,4.553147E-002,4.553147E-002,4.553147E-002,4.553147E-002,
   **   ~~~   ** Supply-to-demand interface deck 1 mass flow rate check value iteration history trace: 4.553147E-002,4.553147E-002,4.553147E-002,4.553147E-002,4.553147E-002,4.553147E-002,4.553147E-002,4.553147E-002,4.553147E-002,4.553147E-002,
   **   ~~~   ** Air System Named = CENTRAL SYSTEM did not converge for energy
   **   ~~~   ** Check values should be zero. Most Recent values listed first.
   **   ~~~   ** Demand-to-Supply interface energy check value iteration history trace: 879.321398,879.321398,879.321398,879.321398,879.321398,879.321398,879.321398,879.321398,879.321398,879.321398,
   **   ~~~   ** Supply-to-demand interface deck 1 energy check value iteration history trace: 1669.744334,1669.744334,1669.744334,1669.744334,1669.744334,1669.744334,1669.744334,1669.744334,1669.744334,1669.744334,
   ** Warning ** SimHVAC: Maximum iterations (20) exceeded for all HVAC loops, at ANNUAL, 01/24 10:19 - 10:22
   **   ~~~   ** The solution for one or more of the Air Loop HVAC systems did not appear to converge
   **   ~~~   ** Air System Named = CENTRAL SYSTEM did not converge for mass flow rate
   **   ~~~   ** Check values should be zero. Most Recent values listed first.
   **   ~~~   ** Demand-to-Supply interface mass flow rate check value iteration history trace: 6.209311E-002,6.209311E-002,6.209311E-002,6.209311E-002,6.209311E-002,6.209311E-002,6.209311E-002,6.209311E-002,6.209311E-002,6.209311E-002,
   **   ~~~   ** Supply-to-demand interface deck 1 mass flow rate check value iteration history trace: 6.209311E-002,6.209311E-002,6.209311E-002,6.209311E-002,6.209311E-002,6.209311E-002,6.209311E-002,6.209311E-002,6.209311E-002,6.209311E-002,
   **   ~~~   ** Air System Named = CENTRAL SYSTEM did not converge for energy
   **   ~~~   ** Check values should be zero. Most Recent values listed first.
   **   ~~~   ** Demand-to-Supply interface energy check value iteration history trace: 1231.110225,1231.110225,1231.110225,1231.110225,1231.110225,1231.110225,1231.110225,1231.110225,1231.110225,1231.110225,
   **   ~~~   ** Supply-to-demand interface deck 1 energy check value iteration history trace: 2067.240697,2067.240697,2067.240697,2067.240697,2067.240697,2067.240697,2067.240697,2067.240697,2067.240697,2067.240696,
   ** Warning ** SimHVAC: Maximum iterations (20) exceeded for all HVAC loops, at ANNUAL, 01/27 10:35 - 10:38
   **   ~~~   ** The solution for one or more of the Air Loop HVAC systems did not appear to converge
   **   ~~~   ** Air System Named = CENTRAL SYSTEM did not converge for mass flow rate
   **   ~~~   ** Check values should be zero. Most Recent values listed first.
   **   ~~~   ** Demand-to-Supply interface mass flow rate check value iteration history trace: 4.822024E-002,4.822024E-002,4.822024E-002,4.822024E-002,4.822024E-002,4.822024E-002,4.822024E-002,4.822024E-002,4.822024E-002,4.822024E-002,
   **   ~~~   ** Supply-to-demand interface deck 1 mass flow rate check value iteration history trace: 4.822024E-002,4.822024E-002,4.822024E-002,4.822024E-002,4.822024E-002,4.822024E-002,4.822024E-002,4.822024E-002,4.822024E-002,4.822024E-002,
   **   ~~~   ** Air System Named = CENTRAL SYSTEM did not converge for energy
   **   ~~~   ** Check values should be zero. Most Recent values listed first.
   **   ~~~   ** Demand-to-Supply interface energy check value iteration history trace: 955.579613,955.579613,955.579613,955.579613,955.579613,955.579613,955.579613,955.579613,955.579613,955.579613,
   **   ~~~   ** Supply-to-demand interface deck 1 energy check value iteration history trace: 1637.418375,1637.418375,1637.418375,1637.418375,1637.418375,1637.418375,1637.418375,1637.418375,1637.418375,1637.418375,
   ** Warning ** SimHVAC: Maximum iterations (20) exceeded for all HVAC loops, at ANNUAL, 02/11 11:26 - 11:28
   **   ~~~   ** The solution for one or more of the Air Loop HVAC systems did not appear to converge
   **   ~~~   ** Air System Named = CENTRAL SYSTEM did not converge for mass flow rate
   **   ~~~   ** Check values should be zero. Most Recent values listed first.
   **   ~~~   ** Demand-to-Supply interface mass flow rate check value iteration history trace: 5.285037E-002,5.285037E-002,5.285037E-002,5.285037E-002,5.285037E-002,5.285037E-002,5.285037E-002,5.285037E-002,5.285037E-002,5.285037E-002,
   **   ~~~   ** Supply-to-demand interface deck 1 mass flow rate check value iteration history trace: 5.285037E-002,5.285037E-002,5.285037E-002,5.285037E-002,5.285037E-002,5.285037E-002,5.285037E-002,5.285037E-002,5.285037E-002,5.285037E-002,
   **   ~~~   ** Air System Named = CENTRAL SYSTEM did not converge for energy
   **   ~~~   ** Check values should be zero. Most Recent values listed first.
   **   ~~~   ** Demand-to-Supply interface energy check value iteration history trace: 1043.898753,1043.898753,1043.898753,1043.898753,1043.898753,1043.898753,1043.898753,1043.898753,1043.898753,1043.898753,
   **   ~~~   ** Supply-to-demand interface deck 1 energy check value iteration history trace: 2029.658049,2029.658048,2029.658048,2029.658048,2029.658048,2029.658048,2029.658048,2029.658048,2029.658048,2029.658048,
   ** Warning ** SimHVAC: Maximum iterations (20) exceeded for all HVAC loops, at ANNUAL, 02/17 00:00 - 00:08
   **   ~~~   ** The solution for one or more of the Air Loop HVAC systems did not appear to converge
   **   ~~~   ** Air System Named = CENTRAL SYSTEM did not converge for mass flow rate
   **   ~~~   ** Check values should be zero. Most Recent values listed first.
   **   ~~~   ** Demand-to-Supply interface mass flow rate check value iteration history trace: 6.082436E-002,6.082436E-002,6.082436E-002,6.082436E-002,6.082436E-002,6.082436E-002,6.082436E-002,6.082436E-002,6.082436E-002,6.082436E-002,
   **   ~~~   ** Supply-to-demand interface deck 1 mass flow rate check value iteration history trace: 6.082436E-002,6.082436E-002,6.082436E-002,6.082436E-002,6.082436E-002,6.082436E-002,6.082436E-002,6.082436E-002,6.082436E-002,6.082436E-002,
   **   ~~~   ** Air System Named = CENTRAL SYSTEM did not converge for energy
   **   ~~~   ** Check values should be zero. Most Recent values listed first.
   **   ~~~   ** Demand-to-Supply interface energy check value iteration history trace: 1139.741353,1139.741353,1139.741353,1139.741353,1139.741353,1139.741353,1139.741353,1139.741353,1139.741353,1139.741353,
   **   ~~~   ** Supply-to-demand interface deck 1 energy check value iteration history trace: 1897.986714,1897.986714,1897.986714,1897.986714,1897.986714,1897.986714,1897.986714,1897.986714,1897.986714,1897.986714,
   ** Warning ** SimHVAC: Maximum iterations (20) exceeded for all HVAC loops, at ANNUAL, 03/01 10:00 - 10:15
   **   ~~~   ** The solution for one or more of the Air Loop HVAC systems did not appear to converge
   **   ~~~   ** Air System Named = CENTRAL SYSTEM did not converge for mass flow rate
   **   ~~~   ** Check values should be zero. Most Recent values listed first.
   **   ~~~   ** Demand-to-Supply interface mass flow rate check value iteration history trace: 6.120707E-002,6.120707E-002,6.120707E-002,6.120707E-002,6.120707E-002,6.120707E-002,6.120707E-002,6.120707E-002,6.120707E-002,6.120707E-002,
   **   ~~~   ** Supply-to-demand interface deck 1 mass flow rate check value iteration history trace: 6.120707E-002,6.120707E-002,6.120707E-002,6.120707E-002,6.120707E-002,6.120707E-002,6.120707E-002,6.120707E-002,6.120707E-002,6.120707E-002,
   **   ~~~   ** Air System Named = CENTRAL SYSTEM did not converge for energy
   **   ~~~   ** Check values should be zero. Most Recent values listed first.
   **   ~~~   ** Demand-to-Supply interface energy check value iteration history trace: 1212.935791,1212.935791,1212.935791,1212.935791,1212.935791,1212.935791,1212.935791,1212.935791,1212.935791,1212.935791,
   **   ~~~   ** Supply-to-demand interface deck 1 energy check value iteration history trace: 2113.297648,2113.297647,2113.297647,2113.297647,2113.297647,2113.297647,2113.297647,2113.297647,2113.297647,2113.297647,
   ** Warning ** Temperature out of range [-100. to 200.] (PsyPsatFnTemp)
   **   ~~~   **  Routine=PsyTwbFnTdbWPb, Environment=ANNUAL, at Simulation time=03/01 16:45 - 17:00
   **   ~~~   **  Input Temperature=-104.24
   ** Warning ** SimHVAC: Maximum iterations (20) exceeded for all HVAC loops, at ANNUAL, 03/02 00:05 - 00:10
   **   ~~~   ** The solution for one or more of the Air Loop HVAC systems did not appear to converge
   **   ~~~   ** Air System Named = CENTRAL SYSTEM did not converge for mass flow rate
   **   ~~~   ** Check values should be zero. Most Recent values listed first.
   **   ~~~   ** Demand-to-Supply interface mass flow rate check value iteration history trace: 6.730013E-002,6.730013E-002,6.730013E-002,6.730013E-002,6.730013E-002,6.730013E-002,6.730013E-002,6.730013E-002,6.730013E-002,6.730013E-002,
   **   ~~~   ** Supply-to-demand interface deck 1 mass flow rate check value iteration history trace: 6.730013E-002,6.730013E-002,6.730013E-002,6.730013E-002,6.730013E-002,6.730013E-002,6.730013E-002,6.730013E-002,6.730013E-002,6.730013E-002,
   **   ~~~   ** Air System Named = CENTRAL SYSTEM did not converge for energy
   **   ~~~   ** Check values should be zero. Most Recent values listed first.
   **   ~~~   ** Demand-to-Supply interface energy check value iteration history trace: 1257.262725,1257.262725,1257.262725,1257.262725,1257.262725,1257.262725,1257.262724,1257.262724,1257.262724,1257.262724,
   **   ~~~   ** Supply-to-demand interface deck 1 energy check value iteration history trace: 2026.983442,2026.983442,2026.983442,2026.983442,2026.983442,2026.983442,2026.983441,2026.983441,2026.983441,2026.983441,
   ** Warning ** SimHVAC: Maximum iterations (20) exceeded for all HVAC loops, at ANNUAL, 03/02 12:00 - 12:15
   **   ~~~   ** The solution for one or more of the Air Loop HVAC systems did not appear to converge
   **   ~~~   ** Air System Named = CENTRAL SYSTEM did not converge for mass flow rate
   **   ~~~   ** Check values should be zero. Most Recent values listed first.
   **   ~~~   ** Demand-to-Supply interface mass flow rate check value iteration history trace: 5.076125E-002,5.076125E-002,5.076125E-002,5.076125E-002,5.076125E-002,5.076125E-002,5.076125E-002,5.076125E-002,5.076125E-002,5.076125E-002,
   **   ~~~   ** Supply-to-demand interface deck 1 mass flow rate check value iteration history trace: 5.076125E-002,5.076125E-002,5.076125E-002,5.076125E-002,5.076125E-002,5.076125E-002,5.076125E-002,5.076125E-002,5.076125E-002,5.076125E-002,
   **   ~~~   ** Air System Named = CENTRAL SYSTEM did not converge for energy
   **   ~~~   ** Check values should be zero. Most Recent values listed first.
   **   ~~~   ** Demand-to-Supply interface energy check value iteration history trace: 1004.206894,1004.206894,1004.206894,1004.206894,1004.206894,1004.206894,1004.206894,1004.206894,1004.206894,1004.206894,
   **   ~~~   ** Supply-to-demand interface deck 1 energy check value iteration history trace: 1911.151169,1911.151169,1911.151169,1911.151169,1911.151169,1911.151169,1911.151168,1911.151168,1911.151168,1911.151168,
   ** Warning ** SimHVAC: Maximum iterations (20) exceeded for all HVAC loops, at ANNUAL, 03/04 12:53 - 12:56
   **   ~~~   ** The solution for one or more of the Air Loop HVAC systems did not appear to converge
   **   ~~~   ** Air System Named = CENTRAL SYSTEM did not converge for mass flow rate
   **   ~~~   ** Check values should be zero. Most Recent values listed first.
   **   ~~~   ** Demand-to-Supply interface mass flow rate check value iteration history trace: 4.749575E-002,4.749575E-002,4.749575E-002,4.749575E-002,4.749575E-002,4.749575E-002,4.749575E-002,4.749575E-002,4.749575E-002,4.749575E-002,
   **   ~~~   ** Supply-to-demand interface deck 1 mass flow rate check value iteration history trace: 4.749575E-002,4.749575E-002,4.749575E-002,4.749575E-002,4.749575E-002,4.749575E-002,4.749575E-002,4.749575E-002,4.749575E-002,4.749575E-002,
   **   ~~~   ** Air System Named = CENTRAL SYSTEM did not converge for energy
   **   ~~~   ** Check values should be zero. Most Recent values listed first.
   **   ~~~   ** Demand-to-Supply interface energy check value iteration history trace: 933.239418,933.239418,933.239418,933.239418,933.239418,933.239418,933.239418,933.239418,933.239418,933.239418,
   **   ~~~   ** Supply-to-demand interface deck 1 energy check value iteration history trace: 1751.905095,1751.905095,1751.905095,1751.905094,1751.905094,1751.905094,1751.905094,1751.905094,1751.905094,1751.905094,
   ** Warning ** SimHVAC: Maximum iterations (20) exceeded for all HVAC loops, at ANNUAL, 03/08 10:03 - 10:05
   **   ~~~   ** The solution for one or more of the Air Loop HVAC systems did not appear to converge
   **   ~~~   ** Air System Named = CENTRAL SYSTEM did not converge for mass flow rate
   **   ~~~   ** Check values should be zero. Most Recent values listed first.
   **   ~~~   ** Demand-to-Supply interface mass flow rate check value iteration history trace: 6.915206E-002,6.915206E-002,6.915206E-002,6.915206E-002,6.915206E-002,6.915206E-002,6.915206E-002,6.915206E-002,6.915206E-002,6.915206E-002,
   **   ~~~   ** Supply-to-demand interface deck 1 mass flow rate check value iteration history trace: 6.915206E-002,6.915206E-002,6.915206E-002,6.915206E-002,6.915206E-002,6.915206E-002,6.915206E-002,6.915206E-002,6.915206E-002,6.915206E-002,
   **   ~~~   ** Air System Named = CENTRAL SYSTEM did not converge for energy
   **   ~~~   ** Check values should be zero. Most Recent values listed first.
   **   ~~~   ** Demand-to-Supply interface energy check value iteration history trace: 1370.450349,1370.450349,1370.450349,1370.450349,1370.450349,1370.450349,1370.450349,1370.450349,1370.450349,1370.450349,
   **   ~~~   ** Supply-to-demand interface deck 1 energy check value iteration history trace: 2292.647942,2292.647942,2292.647942,2292.647942,2292.647942,2292.647942,2292.647942,2292.647942,2292.647942,2292.647941,
   ** Warning ** SimHVAC: Maximum iterations (20) exceeded for all HVAC loops, at ANNUAL, 03/10 09:15 - 09:30
   **   ~~~   ** The solution for one or more of the Air Loop HVAC systems did not appear to converge
   **   ~~~   ** Air System Named = CENTRAL SYSTEM did not converge for mass flow rate
   **   ~~~   ** Check values should be zero. Most Recent values listed first.
   **   ~~~   ** Demand-to-Supply interface mass flow rate check value iteration history trace: 4.914080E-002,4.914080E-002,4.914080E-002,4.914080E-002,4.914080E-002,4.914080E-002,4.914080E-002,4.914080E-002,4.914080E-002,4.914080E-002,
   **   ~~~   ** Supply-to-demand interface deck 1 mass flow rate check value iteration history trace: 4.914080E-002,4.914080E-002,4.914080E-002,4.914080E-002,4.914080E-002,4.914080E-002,4.914080E-002,4.914080E-002,4.914080E-002,4.914080E-002,
   **   ~~~   ** Air System Named = CENTRAL SYSTEM did not converge for energy
   **   ~~~   ** Check values should be zero. Most Recent values listed first.
   **   ~~~   ** Demand-to-Supply interface energy check value iteration history trace: 973.817067,973.817067,973.817067,973.817067,973.817067,973.817067,973.817067,973.817067,973.817067,973.817067,
   **   ~~~   ** Supply-to-demand interface deck 1 energy check value iteration history trace: 1854.842253,1854.842253,1854.842253,1854.842253,1854.842253,1854.842253,1854.842253,1854.842253,1854.842253,1854.842253,
   ** Warning ** SimHVAC: Maximum iterations (20) exceeded for all HVAC loops, at ANNUAL, 03/25 12:15 - 12:30
   **   ~~~   ** The solution for one or more of the Air Loop HVAC systems did not appear to converge
   **   ~~~   ** Air System Named = CENTRAL SYSTEM did not converge for mass flow rate
   **   ~~~   ** Check values should be zero. Most Recent values listed first.
   **   ~~~   ** Demand-to-Supply interface mass flow rate check value iteration history trace: 5.259409E-002,5.259409E-002,5.259409E-002,5.259409E-002,5.259409E-002,5.259409E-002,5.259409E-002,5.259409E-002,5.259409E-002,5.259409E-002,
   **   ~~~   ** Supply-to-demand interface deck 1 mass flow rate check value iteration history trace: 5.259409E-002,5.259409E-002,5.259409E-002,5.259409E-002,5.259409E-002,5.259409E-002,5.259409E-002,5.259409E-002,5.259409E-002,5.259409E-002,
   **   ~~~   ** Air System Named = CENTRAL SYSTEM did not converge for energy
   **   ~~~   ** Check values should be zero. Most Recent values listed first.
   **   ~~~   ** Demand-to-Supply interface energy check value iteration history trace: 1042.187699,1042.187699,1042.187699,1042.187699,1042.187699,1042.187699,1042.187699,1042.187699,1042.187699,1042.187699,
   **   ~~~   ** Supply-to-demand interface deck 1 energy check value iteration history trace: 1941.709410,1941.709410,1941.709409,1941.709409,1941.709409,1941.709409,1941.709409,1941.709409,1941.709409,1941.709409,
   ************* Simulation Error Summary *************
   ** Warning ** The following Report Variables were requested but not generated -- check.rdd file
   **   ~~~   ** Either the IDF did not contain these elements, the variable name is misspelled,
   **   ~~~   ** or the requested variable is an advanced output which requires Output : Diagnostics, DisplayAdvancedReportVariables;
   ************* Key=*, VarName=BASEBOARD TOTAL HEATING ENERGY, Frequency=
   ************* Key=*, VarName=WATER HEATER NATURALGAS ENERGY, Frequency=
   ************* Key=*, VarName=COOLING COIL TOTAL HEATING ENERGY, Frequency=
   ************* There are 34 unused schedules in input.
   ************* There are 388 unused week schedules in input.
   ************* There are 397 unused day schedules in input.
   ************* Use Output:Diagnostics,DisplayUnusedSchedules; to see them.
   *************
   ************* ===== Recurring Error Summary =====
   ************* The following recurring error messages occurred.
   *************
   *************  ** Warning ** "TOTAL HOT WATER LOAD" - Target water temperature should be less than or equal to the hot water temperature error continues...
   *************  **   ~~~   **   This error occurred 135223 total times;
   *************  **   ~~~   **   during Warmup 0 times;
   *************  **   ~~~   **   during Sizing 0 times.
   *************  **   ~~~   **   Max=9.712722  Min=1.019688E-003
   *************
   *************  ** Warning ** Temperature out of range [-100. to 200.] (PsyPsatFnTemp)
   *************  **   ~~~   **   This error occurred 39 total times;
   *************  **   ~~~   **   during Warmup 0 times;
   *************  **   ~~~   **   during Sizing 0 times.
   *************  **   ~~~   **   Max=-104.13052 C  Min=-871.944153 C
   *************
   *************  ** Warning ** SimHVAC: Exceeding Maximum iterations for all HVAC loops, during ANNUAL continues
   *************  **   ~~~   **   This error occurred 19 total times;
   *************  **   ~~~   **   during Warmup 0 times;
   *************  **   ~~~   **   during Sizing 0 times.
   *************
   *************
   ************* ===== Final Error Summary =====
   ************* The following error categories occurred.  Consider correcting or noting.
   ************* Nominally Unused Constructions
   ************* ..The nominally unused constructions warning is provided to alert you to potential conditions that can cause
   ************* ..extra time during simulation. Each construction is calculated by the algorithm indicated in the HeatBalanceAlgorithm
   ************* ..object. You may remove the constructions indicated (when you use the DisplayExtraWarnings option).
   *************
   ************* EnergyPlus Warmup Error Summary. During Warmup: 1 Warning; 0 Severe Errors.
   ************* EnergyPlus Sizing Error Summary. During Sizing: 4 Warning; 0 Severe Errors.
   ************* EnergyPlus Completed Successfully-- 135313 Warning; 0 Severe Errors; Elapsed Time=00hr 01min 48.16sec
