Program Version,EnergyPlus, Version 22.2.0-c249759bad, YMD=2023.09.01 15:08,
   ************* Beginning Zone Sizing Calculations
   ** Warning ** ProcessScheduleInput: Schedule:Constant="ALWAYS ON DISCRETE", Schedule Type Limits Name="ONOFF" not found -- will not be validated
   ** Warning ** Foundation:Kiva="KIVA FOUNDATION", no Interior Horizontal Insulation Material Name defined
   **   ~~~   ** Interior Horizontal Insulation Depth will not be used.
   ** Warning ** CheckUsedConstructions: There are 15 nominally unused constructions in input.
   **   ~~~   ** Each Unused construction is shown.
   ************* Construction=INTERIOR FLOOR
   ************* Construction=INTERIOR WINDOW
   ************* Construction=EXTERIOR DOOR
   ************* Construction=INTERIOR DOOR
   ************* Construction=GABLE CONSTRUCTION
   ************* Construction=CRAWL_FLOOR
   ************* Construction=INSULATED PIPE
   ************* Construction=PLAIN PIPE
   ************* Construction=TDD PIPE
   ************* Construction=TDD DOME
   ************* Construction=TDD DIFFUSER
   ************* Construction=CRAWL WALL
   ************* Construction=CEILING-FLOOR-LAYER
   ************* Construction=SLAB CONSTRUCTION W FULL R10 INSULATION
   ************* Construction=SLAB CONSTRUCTION W FULL R5 INSULATION
   ** Warning ** GetDXCoils: Coil:Heating:DX:SingleSpeed="DX_HEATING_COIL" curve values
   **   ~~~   ** ... Defrost Energy Input Ratio Function of Temperature Curve Name = DEFROSTEIR output is not equal to 1.0 (+ or - 10%) at rated conditions.
   **   ~~~   ** ... Curve output at rated conditions = 0.152
   ************* Beginning System Sizing Calculations
   ************* Beginning Plant Sizing Calculations
   ** Warning ** SizeDXCoil Coil:Cooling:DX:SingleSpeed DX_COOLING_COIL
   **   ~~~   ** ...Gross Rated Total Cooling Capacity [W] will be limited by the maximum rated volume flow per rated total capacity ratio.
   **   ~~~   ** ...DX coil volume flow rate ( m3/s ) = 0.392327
   **   ~~~   ** ...Requested capacity ( W ) = 6336.090
   **   ~~~   ** ...Requested flow/capacity ratio ( m3/s/W ) = 6.191E-005
   **   ~~~   ** ...Maximum flow/capacity ratio ( m3/s/W ) = 6.041E-005
   **   ~~~   ** ...Adjusted capacity ( W ) = 6494.414
   ** Warning ** Coil:WaterHeating:AirToWaterHeatPump:Wrapped "HEAT PUMP WATER HEATER EVAPORATOR": Rated air volume flow rate per watt of rated total water heating capacity is out of range
   **   ~~~   ** Min Rated Vol Flow Per Watt=[4.027E-005], Rated Vol Flow Per Watt=[1.386E-004], Max Rated Vol Flow Per Watt=[8.056E-005]. See Input-Output Reference Manual for valid range.
   ** Warning ** Water heater = WATER HEATER TANK:  Recovery Efficiency and Energy Factor could not be calculated during the test for standard ratings
   **   ~~~   ** Setpoint was never recovered and/or heater never turned on
   ** Warning ** Check input. Pump nominal power or motor efficiency is set to 0, for pump=MAINS PRESSURE
   ** Warning ** Output:Meter: invalid Key Name="ELECTRIC_RANGE:INTERIOREQUIPMENT:ELECTRICITY" - not found.
   ** Warning ** Output:Meter: invalid Key Name="ELECTRIC_DRYER:INTERIOREQUIPMENT:ELECTRICITY" - not found.
   ** Warning ** Output:Meter: invalid Key Name="HEATRECOVERY:ELECTRICITY" - not found.
   ** Warning ** Output:Meter: invalid Key Name="HEATING:NATURALGAS" - not found.
   ** Warning ** Output:Meter: invalid Key Name="WATERSYSTEMS:NATURALGAS" - not found.
   ** Warning ** Output:Meter: invalid Key Name="PROPANE:FACILITY" - not found.
   ** Warning ** Output:Meter: invalid Key Name="HEATING:PROPANE" - not found.
   ************* Testing Individual Branch Integrity
   ************* All Branches passed integrity testing
   ************* Testing Individual Supply Air Path Integrity
   ************* All Supply Air Paths passed integrity testing
   ************* Testing Individual Return Air Path Integrity
   ************* All Return Air Paths passed integrity testing
   ************* No node connection errors were found.
   ************* Beginning Simulation
   ** Warning ** AirflowNetwork::Solver::validate_distribution: Heat pump water heater is simulated along with an AirflowNetwork but is not included in the AirflowNetwork.
   ** Warning ** CalcEquipmentFlowRates: "TOTAL HOT WATER LOAD" - Target water temperature is greater than the hot water temperature by (1.64 C)
   **   ~~~   **  Environment=EXTREME_WINTER, at Simulation time=01/20 06:00 - 06:15
   **   ~~~   ** ...target water temperature     = 53.33 C
   **   ~~~   ** ...hot water temperature        = 51.69 C
   **   ~~~   ** ...Target water temperature should be less than or equal to the hot water temperature. Verify temperature setpoints and schedules.
   ** Warning ** SimHVAC: Maximum iterations (20) exceeded for all HVAC loops, at ANNUAL, 01/08 11:45 - 11:48
   **   ~~~   ** The solution for one or more of the Air Loop HVAC systems did not appear to converge
   **   ~~~   ** Air System Named = CENTRAL SYSTEM did not converge for mass flow rate
   **   ~~~   ** Check values should be zero. Most Recent values listed first.
   **   ~~~   ** Demand-to-Supply interface mass flow rate check value iteration history trace: 7.506529E-002,7.506529E-002,7.506529E-002,7.506529E-002,7.506529E-002,7.506529E-002,7.506529E-002,7.506529E-002,7.506529E-002,7.506529E-002,
   **   ~~~   ** Supply-to-demand interface deck 1 mass flow rate check value iteration history trace: 7.506529E-002,7.506529E-002,7.506529E-002,7.506529E-002,7.506529E-002,7.506529E-002,7.506529E-002,7.506529E-002,7.506529E-002,7.506529E-002,
   **   ~~~   ** Air System Named = CENTRAL SYSTEM did not converge for energy
   **   ~~~   ** Check values should be zero. Most Recent values listed first.
   **   ~~~   ** Demand-to-Supply interface energy check value iteration history trace: 1487.557297,1487.557297,1487.557297,1487.557297,1487.557297,1487.557297,1487.557297,1487.557297,1487.557297,1487.557297,
   **   ~~~   ** Supply-to-demand interface deck 1 energy check value iteration history trace: 2605.880061,2605.880061,2605.880061,2605.880061,2605.880061,2605.880061,2605.880061,2605.880061,2605.880061,2605.880061,
   ** Warning ** SimHVAC: Maximum iterations (20) exceeded for all HVAC loops, at ANNUAL, 02/11 10:45 - 11:00
   **   ~~~   ** The solution for one or more of the Air Loop HVAC systems did not appear to converge
   **   ~~~   ** Air System Named = CENTRAL SYSTEM did not converge for mass flow rate
   **   ~~~   ** Check values should be zero. Most Recent values listed first.
   **   ~~~   ** Demand-to-Supply interface mass flow rate check value iteration history trace: 7.735258E-002,7.735258E-002,7.735258E-002,7.735258E-002,7.735258E-002,7.735258E-002,7.735258E-002,7.735258E-002,7.735258E-002,7.735258E-002,
   **   ~~~   ** Supply-to-demand interface deck 1 mass flow rate check value iteration history trace: 7.735258E-002,7.735258E-002,7.735258E-002,7.735258E-002,7.735258E-002,7.735258E-002,7.735258E-002,7.735258E-002,7.735258E-002,7.735258E-002,
   **   ~~~   ** Air System Named = CENTRAL SYSTEM did not converge for energy
   **   ~~~   ** Check values should be zero. Most Recent values listed first.
   **   ~~~   ** Demand-to-Supply interface energy check value iteration history trace: 1532.914993,1532.914993,1532.914993,1532.914993,1532.914993,1532.914993,1532.914993,1532.914993,1532.914993,1532.914993,
   **   ~~~   ** Supply-to-demand interface deck 1 energy check value iteration history trace: 2585.554810,2585.554810,2585.554810,2585.554810,2585.554810,2585.554810,2585.554810,2585.554810,2585.554810,2585.554809,
   ** Warning ** SimHVAC: Maximum iterations (20) exceeded for all HVAC loops, at ANNUAL, 02/27 19:30 - 19:38
   **   ~~~   ** The solution for one or more of the Air Loop HVAC systems did not appear to converge
   **   ~~~   ** Air System Named = CENTRAL SYSTEM did not converge for mass flow rate
   **   ~~~   ** Check values should be zero. Most Recent values listed first.
   **   ~~~   ** Demand-to-Supply interface mass flow rate check value iteration history trace: 7.834066E-002,7.834066E-002,7.834066E-002,7.834066E-002,7.834066E-002,7.834066E-002,7.834066E-002,7.834066E-002,7.834066E-002,7.834066E-002,
   **   ~~~   ** Supply-to-demand interface deck 1 mass flow rate check value iteration history trace: 7.834066E-002,7.834066E-002,7.834066E-002,7.834066E-002,7.834066E-002,7.834066E-002,7.834066E-002,7.834066E-002,7.834066E-002,7.834066E-002,
   **   ~~~   ** Air System Named = CENTRAL SYSTEM did not converge for energy
   **   ~~~   ** Check values should be zero. Most Recent values listed first.
   **   ~~~   ** Demand-to-Supply interface energy check value iteration history trace: 1551.156366,1551.156366,1551.156366,1551.156366,1551.156366,1551.156366,1551.156366,1551.156365,1551.156365,1551.156365,
   **   ~~~   ** Supply-to-demand interface deck 1 energy check value iteration history trace: 2723.471173,2723.471173,2723.471173,2723.471173,2723.471172,2723.471172,2723.471172,2723.471172,2723.471172,2723.471172,
   ** Warning ** SimHVAC: Maximum iterations (20) exceeded for all HVAC loops, at ANNUAL, 03/26 09:30 - 09:45
   **   ~~~   ** The solution for one or more of the Air Loop HVAC systems did not appear to converge
   **   ~~~   ** Air System Named = CENTRAL SYSTEM did not converge for mass flow rate
   **   ~~~   ** Check values should be zero. Most Recent values listed first.
   **   ~~~   ** Demand-to-Supply interface mass flow rate check value iteration history trace: 8.949670E-002,8.949670E-002,8.949670E-002,8.949670E-002,8.949670E-002,8.949670E-002,8.949670E-002,8.949670E-002,8.949670E-002,8.949670E-002,
   **   ~~~   ** Supply-to-demand interface deck 1 mass flow rate check value iteration history trace: 8.949670E-002,8.949670E-002,8.949670E-002,8.949670E-002,8.949670E-002,8.949670E-002,8.949670E-002,8.949670E-002,8.949670E-002,8.949670E-002,
   **   ~~~   ** Air System Named = CENTRAL SYSTEM did not converge for energy
   **   ~~~   ** Check values should be zero. Most Recent values listed first.
   **   ~~~   ** Demand-to-Supply interface energy check value iteration history trace: 1772.812974,1772.812974,1772.812974,1772.812974,1772.812974,1772.812974,1772.812974,1772.812974,1772.812974,1772.812973,
   **   ~~~   ** Supply-to-demand interface deck 1 energy check value iteration history trace: 2995.360684,2995.360684,2995.360684,2995.360684,2995.360684,2995.360683,2995.360683,2995.360683,2995.360683,2995.360683,
   ** Warning ** SimHVAC: Maximum iterations (20) exceeded for all HVAC loops, at ANNUAL, 03/26 22:10 - 22:15
   **   ~~~   ** The solution for one or more of the Air Loop HVAC systems did not appear to converge
   **   ~~~   ** Air System Named = CENTRAL SYSTEM did not converge for mass flow rate
   **   ~~~   ** Check values should be zero. Most Recent values listed first.
   **   ~~~   ** Demand-to-Supply interface mass flow rate check value iteration history trace: 9.750808E-002,9.750808E-002,9.750808E-002,9.750808E-002,9.750808E-002,9.750808E-002,9.750808E-002,9.750808E-002,9.750808E-002,9.750808E-002,
   **   ~~~   ** Supply-to-demand interface deck 1 mass flow rate check value iteration history trace: 9.750808E-002,9.750808E-002,9.750808E-002,9.750808E-002,9.750808E-002,9.750808E-002,9.750808E-002,9.750808E-002,9.750808E-002,9.750808E-002,
   **   ~~~   ** Air System Named = CENTRAL SYSTEM did not converge for energy
   **   ~~~   ** Check values should be zero. Most Recent values listed first.
   **   ~~~   ** Demand-to-Supply interface energy check value iteration history trace: 1849.301380,1849.301379,1849.301379,1849.301379,1849.301379,1849.301379,1849.301379,1849.301379,1849.301379,1849.301378,
   **   ~~~   ** Supply-to-demand interface deck 1 energy check value iteration history trace: 2790.166022,2790.166022,2790.166021,2790.166021,2790.166021,2790.166021,2790.166021,2790.166020,2790.166020,2790.166020,
   ** Warning ** SimHVAC: Maximum iterations (20) exceeded for all HVAC loops, at ANNUAL, 10/21 09:15 - 09:17
   **   ~~~   ** The solution for one or more of the Air Loop HVAC systems did not appear to converge
   **   ~~~   ** Air System Named = CENTRAL SYSTEM did not converge for mass flow rate
   **   ~~~   ** Check values should be zero. Most Recent values listed first.
   **   ~~~   ** Demand-to-Supply interface mass flow rate check value iteration history trace: 8.456035E-002,8.456035E-002,8.456035E-002,8.456035E-002,8.456035E-002,8.456035E-002,8.456035E-002,8.456035E-002,8.456035E-002,8.456035E-002,
   **   ~~~   ** Supply-to-demand interface deck 1 mass flow rate check value iteration history trace: 8.456035E-002,8.456035E-002,8.456035E-002,8.456035E-002,8.456035E-002,8.456035E-002,8.456035E-002,8.456035E-002,8.456035E-002,8.456035E-002,
   **   ~~~   ** Air System Named = CENTRAL SYSTEM did not converge for energy
   **   ~~~   ** Check values should be zero. Most Recent values listed first.
   **   ~~~   ** Demand-to-Supply interface energy check value iteration history trace: 1673.311764,1673.311763,1673.311763,1673.311763,1673.311763,1673.311763,1673.311763,1673.311763,1673.311763,1673.311763,
   **   ~~~   ** Supply-to-demand interface deck 1 energy check value iteration history trace: 2930.630679,2930.630679,2930.630679,2930.630678,2930.630678,2930.630678,2930.630678,2930.630678,2930.630678,2930.630678,
   ** Warning ** SimHVAC: Maximum iterations (20) exceeded for all HVAC loops, at ANNUAL, 11/05 21:50 - 21:55
   **   ~~~   ** The solution for one or more of the Air Loop HVAC systems did not appear to converge
   **   ~~~   ** Air System Named = CENTRAL SYSTEM did not converge for mass flow rate
   **   ~~~   ** Check values should be zero. Most Recent values listed first.
   **   ~~~   ** Demand-to-Supply interface mass flow rate check value iteration history trace: 8.662910E-002,8.662910E-002,8.662910E-002,8.662910E-002,8.662910E-002,8.662910E-002,8.662910E-002,8.662910E-002,8.662910E-002,8.662910E-002,
   **   ~~~   ** Supply-to-demand interface deck 1 mass flow rate check value iteration history trace: 8.662910E-002,8.662910E-002,8.662910E-002,8.662910E-002,8.662910E-002,8.662910E-002,8.662910E-002,8.662910E-002,8.662910E-002,8.662910E-002,
   **   ~~~   ** Air System Named = CENTRAL SYSTEM did not converge for energy
   **   ~~~   ** Check values should be zero. Most Recent values listed first.
   **   ~~~   ** Demand-to-Supply interface energy check value iteration history trace: 1716.097754,1716.097754,1716.097754,1716.097754,1716.097754,1716.097754,1716.097754,1716.097754,1716.097754,1716.097753,
   **   ~~~   ** Supply-to-demand interface deck 1 energy check value iteration history trace: 2615.671341,2615.671340,2615.671340,2615.671340,2615.671340,2615.671340,2615.671340,2615.671339,2615.671339,2615.671339,
   ** Warning ** SimHVAC: Maximum iterations (20) exceeded for all HVAC loops, at ANNUAL, 11/10 15:30 - 15:45
   **   ~~~   ** The solution for one or more of the Air Loop HVAC systems did not appear to converge
   **   ~~~   ** Air System Named = CENTRAL SYSTEM did not converge for mass flow rate
   **   ~~~   ** Check values should be zero. Most Recent values listed first.
   **   ~~~   ** Demand-to-Supply interface mass flow rate check value iteration history trace: 7.470276E-002,7.470276E-002,7.470276E-002,7.470276E-002,7.470276E-002,7.470276E-002,7.470276E-002,7.470276E-002,7.470276E-002,7.470276E-002,
   **   ~~~   ** Supply-to-demand interface deck 1 mass flow rate check value iteration history trace: 7.470276E-002,7.470276E-002,7.470276E-002,7.470276E-002,7.470276E-002,7.470276E-002,7.470276E-002,7.470276E-002,7.470276E-002,7.470276E-002,
   **   ~~~   ** Air System Named = CENTRAL SYSTEM did not converge for energy
   **   ~~~   ** Check values should be zero. Most Recent values listed first.
   **   ~~~   ** Demand-to-Supply interface energy check value iteration history trace: 1479.768666,1479.768666,1479.768666,1479.768666,1479.768666,1479.768666,1479.768666,1479.768666,1479.768665,1479.768665,
   **   ~~~   ** Supply-to-demand interface deck 1 energy check value iteration history trace: 2622.292759,2622.292759,2622.292759,2622.292759,2622.292758,2622.292758,2622.292758,2622.292758,2622.292758,2622.292758,
   ** Warning ** SimHVAC: Maximum iterations (20) exceeded for all HVAC loops, at ANNUAL, 11/11 09:15 - 09:30
   **   ~~~   ** The solution for one or more of the Air Loop HVAC systems did not appear to converge
   **   ~~~   ** Air System Named = CENTRAL SYSTEM did not converge for mass flow rate
   **   ~~~   ** Check values should be zero. Most Recent values listed first.
   **   ~~~   ** Demand-to-Supply interface mass flow rate check value iteration history trace: 9.420899E-002,9.420899E-002,9.420899E-002,9.420899E-002,9.420899E-002,9.420899E-002,9.420899E-002,9.420899E-002,9.420899E-002,9.420899E-002,
   **   ~~~   ** Supply-to-demand interface deck 1 mass flow rate check value iteration history trace: 9.420899E-002,9.420899E-002,9.420899E-002,9.420899E-002,9.420899E-002,9.420899E-002,9.420899E-002,9.420899E-002,9.420899E-002,9.420899E-002,
   **   ~~~   ** Air System Named = CENTRAL SYSTEM did not converge for energy
   **   ~~~   ** Check values should be zero. Most Recent values listed first.
   **   ~~~   ** Demand-to-Supply interface energy check value iteration history trace: 1851.523431,1851.523431,1851.523431,1851.523430,1851.523430,1851.523430,1851.523430,1851.523430,1851.523430,1851.523430,
   **   ~~~   ** Supply-to-demand interface deck 1 energy check value iteration history trace: 3105.955043,3105.955043,3105.955043,3105.955043,3105.955043,3105.955043,3105.955042,3105.955042,3105.955042,3105.955042,
   ** Warning ** SimHVAC: Maximum iterations (20) exceeded for all HVAC loops, at ANNUAL, 11/11 10:15 - 10:18
   **   ~~~   ** The solution for one or more of the Air Loop HVAC systems did not appear to converge
   **   ~~~   ** Air System Named = CENTRAL SYSTEM did not converge for mass flow rate
   **   ~~~   ** Check values should be zero. Most Recent values listed first.
   **   ~~~   ** Demand-to-Supply interface mass flow rate check value iteration history trace: 7.969497E-002,7.969497E-002,7.969497E-002,7.969497E-002,7.969497E-002,7.969497E-002,7.969497E-002,7.969497E-002,7.969497E-002,7.969497E-002,
   **   ~~~   ** Supply-to-demand interface deck 1 mass flow rate check value iteration history trace: 7.969497E-002,7.969497E-002,7.969497E-002,7.969497E-002,7.969497E-002,7.969497E-002,7.969497E-002,7.969497E-002,7.969497E-002,7.969497E-002,
   **   ~~~   ** Air System Named = CENTRAL SYSTEM did not converge for energy
   **   ~~~   ** Check values should be zero. Most Recent values listed first.
   **   ~~~   ** Demand-to-Supply interface energy check value iteration history trace: 1575.089433,1575.089433,1575.089433,1575.089433,1575.089433,1575.089433,1575.089433,1575.089433,1575.089433,1575.089433,
   **   ~~~   ** Supply-to-demand interface deck 1 energy check value iteration history trace: 2679.763361,2679.763360,2679.763360,2679.763360,2679.763360,2679.763360,2679.763360,2679.763360,2679.763360,2679.763359,
   ** Warning ** SimHVAC: Maximum iterations (20) exceeded for all HVAC loops, at ANNUAL, 11/14 08:45 - 09:00
   **   ~~~   ** The solution for one or more of the Air Loop HVAC systems did not appear to converge
   **   ~~~   ** Air System Named = CENTRAL SYSTEM did not converge for mass flow rate
   **   ~~~   ** Check values should be zero. Most Recent values listed first.
   **   ~~~   ** Demand-to-Supply interface mass flow rate check value iteration history trace: 7.593158E-002,7.593158E-002,7.593158E-002,7.593158E-002,7.593158E-002,7.593158E-002,7.593158E-002,7.593158E-002,7.593158E-002,7.593158E-002,
   **   ~~~   ** Supply-to-demand interface deck 1 mass flow rate check value iteration history trace: 7.593158E-002,7.593158E-002,7.593158E-002,7.593158E-002,7.593158E-002,7.593158E-002,7.593158E-002,7.593158E-002,7.593158E-002,7.593158E-002,
   **   ~~~   ** Air System Named = CENTRAL SYSTEM did not converge for energy
   **   ~~~   ** Check values should be zero. Most Recent values listed first.
   **   ~~~   ** Demand-to-Supply interface energy check value iteration history trace: 1500.478999,1500.478999,1500.478999,1500.478999,1500.478999,1500.478999,1500.478999,1500.478999,1500.478999,1500.478999,
   **   ~~~   ** Supply-to-demand interface deck 1 energy check value iteration history trace: 2574.220966,2574.220966,2574.220966,2574.220966,2574.220966,2574.220965,2574.220965,2574.220965,2574.220965,2574.220965,
   ** Warning ** SimHVAC: Maximum iterations (20) exceeded for all HVAC loops, at ANNUAL, 12/03 19:53 - 20:00
   **   ~~~   ** The solution for one or more of the Air Loop HVAC systems did not appear to converge
   **   ~~~   ** Air System Named = CENTRAL SYSTEM did not converge for mass flow rate
   **   ~~~   ** Check values should be zero. Most Recent values listed first.
   **   ~~~   ** Demand-to-Supply interface mass flow rate check value iteration history trace: 0.128550,0.128550,0.128550,0.128550,0.128550,0.128550,0.128550,0.128550,0.128550,0.128550,
   **   ~~~   ** Supply-to-demand interface deck 1 mass flow rate check value iteration history trace: 0.128550,0.128550,0.128550,0.128550,0.128550,0.128550,0.128550,0.128550,0.128550,0.128550,
   **   ~~~   ** Air System Named = CENTRAL SYSTEM did not converge for energy
   **   ~~~   ** Check values should be zero. Most Recent values listed first.
   **   ~~~   ** Demand-to-Supply interface energy check value iteration history trace: 2544.309086,2544.309086,2544.309085,2544.309085,2544.309085,2544.309085,2544.309085,2544.309084,2544.309084,2544.309084,
   **   ~~~   ** Supply-to-demand interface deck 1 energy check value iteration history trace: 3792.759459,3792.759459,3792.759459,3792.759458,3792.759458,3792.759458,3792.759457,3792.759457,3792.759457,3792.759457,
   ************* Simulation Error Summary *************
   ** Warning ** The following Report Variables were requested but not generated -- check.rdd file
   **   ~~~   ** Either the IDF did not contain these elements, the variable name is misspelled,
   **   ~~~   ** or the requested variable is an advanced output which requires Output : Diagnostics, DisplayAdvancedReportVariables;
   ************* Key=*, VarName=BASEBOARD TOTAL HEATING ENERGY, Frequency=
   ************* Key=*, VarName=WATER HEATER NATURALGAS ENERGY, Frequency=
   ************* Key=*, VarName=COOLING COIL TOTAL HEATING ENERGY, Frequency=
   ************* There are 34 unused schedules in input.
   ************* There are 388 unused week schedules in input.
   ************* There are 396 unused day schedules in input.
   ************* Use Output:Diagnostics,DisplayUnusedSchedules; to see them.
   *************
   ************* ===== Recurring Error Summary =====
   ************* The following recurring error messages occurred.
   *************
   *************  ** Warning ** "TOTAL HOT WATER LOAD" - Target water temperature should be less than or equal to the hot water temperature error continues...
   *************  **   ~~~   **   This error occurred 100371 total times;
   *************  **   ~~~   **   during Warmup 0 times;
   *************  **   ~~~   **   during Sizing 0 times.
   *************  **   ~~~   **   Max=10.392407  Min=4.297178E-004
   *************
   *************
   ************* ===== Final Error Summary =====
   ************* The following error categories occurred.  Consider correcting or noting.
   ************* Nominally Unused Constructions
   ************* ..The nominally unused constructions warning is provided to alert you to potential conditions that can cause
   ************* ..extra time during simulation. Each construction is calculated by the algorithm indicated in the HeatBalanceAlgorithm
   ************* ..object. You may remove the constructions indicated (when you use the DisplayExtraWarnings option).
   *************
   ************* EnergyPlus Warmup Error Summary. During Warmup: 1 Warning; 0 Severe Errors.
   ************* EnergyPlus Sizing Error Summary. During Sizing: 4 Warning; 0 Severe Errors.
   ************* EnergyPlus Completed Successfully-- 100401 Warning; 0 Severe Errors; Elapsed Time=00hr 05min 23.13sec
