Program Version,EnergyPlus, Version 22.2.0-c249759bad, YMD=2023.09.01 19:20,
   ************* Beginning Zone Sizing Calculations
   ** Warning ** ProcessScheduleInput: Schedule:Constant="ALWAYS ON DISCRETE", Schedule Type Limits Name="ONOFF" not found -- will not be validated
   ** Warning ** Foundation:Kiva="KIVA FOUNDATION", no Interior Horizontal Insulation Material Name defined
   **   ~~~   ** Interior Horizontal Insulation Depth will not be used.
   ** Warning ** CheckUsedConstructions: There are 15 nominally unused constructions in input.
   **   ~~~   ** Each Unused construction is shown.
   ************* Construction=INTERIOR FLOOR
   ************* Construction=INTERIOR WINDOW
   ************* Construction=EXTERIOR DOOR
   ************* Construction=INTERIOR DOOR
   ************* Construction=GABLE CONSTRUCTION
   ************* Construction=CRAWL_FLOOR
   ************* Construction=INSULATED PIPE
   ************* Construction=PLAIN PIPE
   ************* Construction=TDD PIPE
   ************* Construction=TDD DOME
   ************* Construction=TDD DIFFUSER
   ************* Construction=CRAWL WALL
   ************* Construction=CEILING-FLOOR-LAYER
   ************* Construction=SLAB CONSTRUCTION W FULL R10 INSULATION
   ************* Construction=SLAB CONSTRUCTION W FULL R5 INSULATION
   ** Warning ** GetDXCoils: Coil:Heating:DX:SingleSpeed="DX_HEATING_COIL" curve values
   **   ~~~   ** ... Defrost Energy Input Ratio Function of Temperature Curve Name = DEFROSTEIR output is not equal to 1.0 (+ or - 10%) at rated conditions.
   **   ~~~   ** ... Curve output at rated conditions = 0.152
   ************* Beginning System Sizing Calculations
   ************* Beginning Plant Sizing Calculations
   ** Warning ** Coil:WaterHeating:AirToWaterHeatPump:Wrapped "HEAT PUMP WATER HEATER EVAPORATOR": Rated air volume flow rate per watt of rated total water heating capacity is out of range
   **   ~~~   ** Min Rated Vol Flow Per Watt=[4.027E-005], Rated Vol Flow Per Watt=[1.510E-004], Max Rated Vol Flow Per Watt=[8.056E-005]. See Input-Output Reference Manual for valid range.
   ************* SizeFan: : Potential issue with equipment sizing for Fan:OnOff HEAT PUMP WATER HEATER FAN
   **   ~~~   ** User-Specified Maximum Flow Rate [m3/s] = 0.22653
   **   ~~~   ** differs from Design Size Maximum Flow Rate [m3/s] = 7.55250E-002
   **   ~~~   ** This may, or may not, indicate mismatched component sizes.
   **   ~~~   ** Verify that the value entered is intended and is consistent with other components.
   ** Warning ** Water heater = WATER HEATER TANK:  Recovery Efficiency and Energy Factor could not be calculated during the test for standard ratings
   **   ~~~   ** Setpoint was never recovered and/or heater never turned on
   ** Warning ** Check input. Pump nominal power or motor efficiency is set to 0, for pump=MAINS PRESSURE
   ** Warning ** AirflowNetwork::Solver::validate_distribution: Heat pump water heater is simulated along with an AirflowNetwork but is not included in the AirflowNetwork.
   ** Warning ** Output:Meter: invalid Key Name="ELECTRIC_RANGE:INTERIOREQUIPMENT:ELECTRICITY" - not found.
   ** Warning ** Output:Meter: invalid Key Name="ELECTRIC_DRYER:INTERIOREQUIPMENT:ELECTRICITY" - not found.
   ** Warning ** Output:Meter: invalid Key Name="HEATRECOVERY:ELECTRICITY" - not found.
   ** Warning ** Output:Meter: invalid Key Name="HEATING:NATURALGAS" - not found.
   ** Warning ** Output:Meter: invalid Key Name="WATERSYSTEMS:NATURALGAS" - not found.
   ** Warning ** Output:Meter: invalid Key Name="PROPANE:FACILITY" - not found.
   ** Warning ** Output:Meter: invalid Key Name="HEATING:PROPANE" - not found.
   ************* Testing Individual Branch Integrity
   ************* All Branches passed integrity testing
   ************* Testing Individual Supply Air Path Integrity
   ************* All Supply Air Paths passed integrity testing
   ************* Testing Individual Return Air Path Integrity
   ************* All Return Air Paths passed integrity testing
   ************* No node connection errors were found.
   ************* Beginning Simulation
   ** Warning ** CalcEquipmentFlowRates: "TOTAL HOT WATER LOAD" - Target water temperature is greater than the hot water temperature by (1.08 C)
   **   ~~~   **  Environment=EXTREME_WINTER, at Simulation time=12/22 06:45 - 07:00
   **   ~~~   ** ...target water temperature     = 53.33 C
   **   ~~~   ** ...hot water temperature        = 52.25 C
   **   ~~~   ** ...Target water temperature should be less than or equal to the hot water temperature. Verify temperature setpoints and schedules.
   ** Warning ** SimHVAC: Maximum iterations (20) exceeded for all HVAC loops, at ANNUAL, 01/04 09:53 - 09:56
   **   ~~~   ** The solution for one or more of the Air Loop HVAC systems did not appear to converge
   **   ~~~   ** Air System Named = CENTRAL SYSTEM did not converge for mass flow rate
   **   ~~~   ** Check values should be zero. Most Recent values listed first.
   **   ~~~   ** Demand-to-Supply interface mass flow rate check value iteration history trace: 9.045612E-002,9.045612E-002,9.045612E-002,9.045612E-002,9.045612E-002,9.045612E-002,9.045612E-002,9.045612E-002,9.045612E-002,9.045612E-002,
   **   ~~~   ** Supply-to-demand interface deck 1 mass flow rate check value iteration history trace: 9.045612E-002,9.045612E-002,9.045612E-002,9.045612E-002,9.045612E-002,9.045612E-002,9.045612E-002,9.045612E-002,9.045612E-002,9.045612E-002,
   **   ~~~   ** Air System Named = CENTRAL SYSTEM did not converge for energy
   **   ~~~   ** Check values should be zero. Most Recent values listed first.
   **   ~~~   ** Demand-to-Supply interface energy check value iteration history trace: 1792.544871,1792.544871,1792.544871,1792.544871,1792.544871,1792.544870,1792.544870,1792.544870,1792.544870,1792.544870,
   **   ~~~   ** Supply-to-demand interface deck 1 energy check value iteration history trace: 2770.850425,2770.850424,2770.850424,2770.850424,2770.850424,2770.850424,2770.850423,2770.850423,2770.850423,2770.850423,
   ** Warning ** SimHVAC: Maximum iterations (20) exceeded for all HVAC loops, at ANNUAL, 01/29 08:30 - 08:34
   **   ~~~   ** The solution for one or more of the Air Loop HVAC systems did not appear to converge
   **   ~~~   ** Air System Named = CENTRAL SYSTEM did not converge for mass flow rate
   **   ~~~   ** Check values should be zero. Most Recent values listed first.
   **   ~~~   ** Demand-to-Supply interface mass flow rate check value iteration history trace: 7.126563E-002,7.126563E-002,7.126563E-002,7.126563E-002,7.126563E-002,7.126563E-002,7.126563E-002,7.126563E-002,7.126563E-002,7.126563E-002,
   **   ~~~   ** Supply-to-demand interface deck 1 mass flow rate check value iteration history trace: 7.126563E-002,7.126563E-002,7.126563E-002,7.126563E-002,7.126563E-002,7.126563E-002,7.126563E-002,7.126563E-002,7.126563E-002,7.126563E-002,
   **   ~~~   ** Air System Named = CENTRAL SYSTEM did not converge for energy
   **   ~~~   ** Check values should be zero. Most Recent values listed first.
   **   ~~~   ** Demand-to-Supply interface energy check value iteration history trace: 1412.397051,1412.397051,1412.397051,1412.397051,1412.397051,1412.397051,1412.397051,1412.397051,1412.397051,1412.397051,
   **   ~~~   ** Supply-to-demand interface deck 1 energy check value iteration history trace: 2468.536688,2468.536688,2468.536688,2468.536688,2468.536688,2468.536688,2468.536687,2468.536687,2468.536687,2468.536687,
   ** Warning ** SimHVAC: Maximum iterations (20) exceeded for all HVAC loops, at ANNUAL, 02/26 09:00 - 09:15
   **   ~~~   ** The solution for one or more of the Air Loop HVAC systems did not appear to converge
   **   ~~~   ** Air System Named = CENTRAL SYSTEM did not converge for mass flow rate
   **   ~~~   ** Check values should be zero. Most Recent values listed first.
   **   ~~~   ** Demand-to-Supply interface mass flow rate check value iteration history trace: 6.504105E-002,6.504105E-002,6.504105E-002,6.504105E-002,6.504105E-002,6.504105E-002,6.504105E-002,6.504105E-002,6.504105E-002,6.504105E-002,
   **   ~~~   ** Supply-to-demand interface deck 1 mass flow rate check value iteration history trace: 6.504105E-002,6.504105E-002,6.504105E-002,6.504105E-002,6.504105E-002,6.504105E-002,6.504105E-002,6.504105E-002,6.504105E-002,6.504105E-002,
   **   ~~~   ** Air System Named = CENTRAL SYSTEM did not converge for energy
   **   ~~~   ** Check values should be zero. Most Recent values listed first.
   **   ~~~   ** Demand-to-Supply interface energy check value iteration history trace: 1281.751299,1281.751299,1281.751299,1281.751299,1281.751299,1281.751299,1281.751299,1281.751299,1281.751299,1281.751299,
   **   ~~~   ** Supply-to-demand interface deck 1 energy check value iteration history trace: 2287.089350,2287.089350,2287.089350,2287.089350,2287.089350,2287.089350,2287.089350,2287.089350,2287.089350,2287.089350,
   ** Warning ** SimHVAC: Maximum iterations (20) exceeded for all HVAC loops, at ANNUAL, 03/12 08:45 - 09:00
   **   ~~~   ** The solution for one or more of the Air Loop HVAC systems did not appear to converge
   **   ~~~   ** Air System Named = CENTRAL SYSTEM did not converge for mass flow rate
   **   ~~~   ** Check values should be zero. Most Recent values listed first.
   **   ~~~   ** Demand-to-Supply interface mass flow rate check value iteration history trace: 6.121345E-002,6.121345E-002,6.121345E-002,6.121345E-002,6.121345E-002,6.121345E-002,6.121345E-002,6.121345E-002,6.121345E-002,6.121345E-002,
   **   ~~~   ** Supply-to-demand interface deck 1 mass flow rate check value iteration history trace: 6.121345E-002,6.121345E-002,6.121345E-002,6.121345E-002,6.121345E-002,6.121345E-002,6.121345E-002,6.121345E-002,6.121345E-002,6.121345E-002,
   **   ~~~   ** Air System Named = CENTRAL SYSTEM did not converge for energy
   **   ~~~   ** Check values should be zero. Most Recent values listed first.
   **   ~~~   ** Demand-to-Supply interface energy check value iteration history trace: 1207.640972,1207.640972,1207.640972,1207.640972,1207.640972,1207.640972,1207.640972,1207.640971,1207.640971,1207.640971,
   **   ~~~   ** Supply-to-demand interface deck 1 energy check value iteration history trace: 2136.395592,2136.395592,2136.395592,2136.395592,2136.395592,2136.395592,2136.395591,2136.395591,2136.395591,2136.395591,
   ** Warning ** SimHVAC: Maximum iterations (20) exceeded for all HVAC loops, at ANNUAL, 03/29 15:08 - 15:15
   **   ~~~   ** The solution for one or more of the Air Loop HVAC systems did not appear to converge
   **   ~~~   ** Air System Named = CENTRAL SYSTEM did not converge for mass flow rate
   **   ~~~   ** Check values should be zero. Most Recent values listed first.
   **   ~~~   ** Demand-to-Supply interface mass flow rate check value iteration history trace: 0.133484,0.133484,0.133484,0.133484,0.133484,0.133484,0.133484,0.133484,0.133484,0.133484,
   **   ~~~   ** Supply-to-demand interface deck 1 mass flow rate check value iteration history trace: 0.133484,0.133484,0.133484,0.133484,0.133484,0.133484,0.133484,0.133484,0.133484,0.133484,
   **   ~~~   ** Air System Named = CENTRAL SYSTEM did not converge for energy
   **   ~~~   ** Check values should be zero. Most Recent values listed first.
   **   ~~~   ** Demand-to-Supply interface energy check value iteration history trace: 3162.574460,3162.574460,3162.574460,3162.574460,3162.574460,3162.574460,3162.574461,3162.574461,3162.574461,3162.574461,
   **   ~~~   ** Supply-to-demand interface deck 1 energy check value iteration history trace: 1436.558810,1436.558810,1436.558810,1436.558810,1436.558810,1436.558810,1436.558810,1436.558810,1436.558811,1436.558811,
   ** Warning ** SimHVAC: Maximum iterations (20) exceeded for all HVAC loops, at ANNUAL, 03/29 18:08 - 18:15
   **   ~~~   ** The solution for one or more of the Air Loop HVAC systems did not appear to converge
   **   ~~~   ** Air System Named = CENTRAL SYSTEM did not converge for mass flow rate
   **   ~~~   ** Check values should be zero. Most Recent values listed first.
   **   ~~~   ** Demand-to-Supply interface mass flow rate check value iteration history trace: 4.694832E-002,4.694832E-002,4.694832E-002,4.694832E-002,4.694832E-002,4.694832E-002,4.694832E-002,4.694832E-002,4.694832E-002,4.694832E-002,
   **   ~~~   ** Supply-to-demand interface deck 1 mass flow rate check value iteration history trace: 4.694832E-002,4.694832E-002,4.694832E-002,4.694832E-002,4.694832E-002,4.694832E-002,4.694832E-002,4.694832E-002,4.694832E-002,4.694832E-002,
   **   ~~~   ** Air System Named = CENTRAL SYSTEM did not converge for energy
   **   ~~~   ** Check values should be zero. Most Recent values listed first.
   **   ~~~   ** Demand-to-Supply interface energy check value iteration history trace: 1112.176542,1112.176542,1112.176542,1112.176542,1112.176543,1112.176543,1112.176543,1112.176543,1112.176543,1112.176543,
   **   ~~~   ** Supply-to-demand interface deck 1 energy check value iteration history trace: 485.604332,485.604332,485.604332,485.604332,485.604332,485.604332,485.604332,485.604332,485.604332,485.604332,
   ** Warning ** SimHVAC: Maximum iterations (20) exceeded for all HVAC loops, at ANNUAL, 04/03 09:38 - 09:39
   **   ~~~   ** The solution for one or more of the Air Loop HVAC systems did not appear to converge
   **   ~~~   ** Air System Named = CENTRAL SYSTEM did not converge for mass flow rate
   **   ~~~   ** Check values should be zero. Most Recent values listed first.
   **   ~~~   ** Demand-to-Supply interface mass flow rate check value iteration history trace: 0.130649,0.130649,0.130649,0.130649,0.130649,0.130649,0.130649,0.130649,0.130649,0.130649,
   **   ~~~   ** Supply-to-demand interface deck 1 mass flow rate check value iteration history trace: 0.130649,0.130649,0.130649,0.130649,0.130649,0.130649,0.130649,0.130649,0.130649,0.130649,
   **   ~~~   ** Air System Named = CENTRAL SYSTEM did not converge for energy
   **   ~~~   ** Check values should be zero. Most Recent values listed first.
   **   ~~~   ** Demand-to-Supply interface energy check value iteration history trace: 3069.232244,3069.232245,3069.232245,3069.232246,3069.232246,3069.232246,3069.232247,3069.232247,3069.232248,3069.232248,
   **   ~~~   ** Supply-to-demand interface deck 1 energy check value iteration history trace: 1146.726874,1146.726875,1146.726875,1146.726875,1146.726875,1146.726875,1146.726875,1146.726876,1146.726876,1146.726876,
   ** Warning ** SimHVAC: Maximum iterations (20) exceeded for all HVAC loops, at ANNUAL, 04/05 10:30 - 10:45
   **   ~~~   ** The solution for one or more of the Air Loop HVAC systems did not appear to converge
   **   ~~~   ** Air System Named = CENTRAL SYSTEM did not converge for mass flow rate
   **   ~~~   ** Check values should be zero. Most Recent values listed first.
   **   ~~~   ** Demand-to-Supply interface mass flow rate check value iteration history trace: 0.151880,0.151880,0.151880,0.151880,0.151880,0.151880,0.151880,0.151880,0.151880,0.151880,
   **   ~~~   ** Supply-to-demand interface deck 1 mass flow rate check value iteration history trace: 0.151880,0.151880,0.151880,0.151880,0.151880,0.151880,0.151880,0.151880,0.151880,0.151880,
   **   ~~~   ** Air System Named = CENTRAL SYSTEM did not converge for energy
   **   ~~~   ** Check values should be zero. Most Recent values listed first.
   **   ~~~   ** Demand-to-Supply interface energy check value iteration history trace: 3660.777604,3660.777604,3660.777604,3660.777605,3660.777605,3660.777605,3660.777606,3660.777606,3660.777606,3660.777607,
   **   ~~~   ** Supply-to-demand interface deck 1 energy check value iteration history trace: 2105.470253,2105.470254,2105.470254,2105.470254,2105.470254,2105.470254,2105.470255,2105.470255,2105.470255,2105.470255,
   ** Warning ** SimHVAC: Maximum iterations (20) exceeded for all HVAC loops, at ANNUAL, 04/08 12:40 - 12:45
   **   ~~~   ** The solution for one or more of the Air Loop HVAC systems did not appear to converge
   **   ~~~   ** Air System Named = CENTRAL SYSTEM did not converge for mass flow rate
   **   ~~~   ** Check values should be zero. Most Recent values listed first.
   **   ~~~   ** Demand-to-Supply interface mass flow rate check value iteration history trace: 5.707511E-002,5.707511E-002,5.707511E-002,5.707511E-002,5.707511E-002,5.707511E-002,5.707511E-002,5.707511E-002,5.707511E-002,5.707511E-002,
   **   ~~~   ** Supply-to-demand interface deck 1 mass flow rate check value iteration history trace: 5.707511E-002,5.707511E-002,5.707511E-002,5.707511E-002,5.707511E-002,5.707511E-002,5.707511E-002,5.707511E-002,5.707511E-002,5.707511E-002,
   **   ~~~   ** Air System Named = CENTRAL SYSTEM did not converge for energy
   **   ~~~   ** Check values should be zero. Most Recent values listed first.
   **   ~~~   ** Demand-to-Supply interface energy check value iteration history trace: 1345.545321,1345.545321,1345.545321,1345.545321,1345.545321,1345.545321,1345.545321,1345.545322,1345.545322,1345.545322,
   **   ~~~   ** Supply-to-demand interface deck 1 energy check value iteration history trace: 507.373824,507.373825,507.373825,507.373825,507.373825,507.373825,507.373825,507.373825,507.373825,507.373825,
   ** Warning ** SimHVAC: Maximum iterations (20) exceeded for all HVAC loops, at ANNUAL, 10/08 08:45 - 09:00
   **   ~~~   ** The solution for one or more of the Air Loop HVAC systems did not appear to converge
   **   ~~~   ** Air System Named = CENTRAL SYSTEM did not converge for mass flow rate
   **   ~~~   ** Check values should be zero. Most Recent values listed first.
   **   ~~~   ** Demand-to-Supply interface mass flow rate check value iteration history trace: 6.260095E-002,6.260095E-002,6.260095E-002,6.260095E-002,6.260095E-002,6.260095E-002,6.260095E-002,6.260095E-002,6.260095E-002,6.260095E-002,
   **   ~~~   ** Supply-to-demand interface deck 1 mass flow rate check value iteration history trace: 6.260095E-002,6.260095E-002,6.260095E-002,6.260095E-002,6.260095E-002,6.260095E-002,6.260095E-002,6.260095E-002,6.260095E-002,6.260095E-002,
   **   ~~~   ** Air System Named = CENTRAL SYSTEM did not converge for energy
   **   ~~~   ** Check values should be zero. Most Recent values listed first.
   **   ~~~   ** Demand-to-Supply interface energy check value iteration history trace: 1240.510410,1240.510410,1240.510410,1240.510410,1240.510410,1240.510410,1240.510410,1240.510410,1240.510410,1240.510410,
   **   ~~~   ** Supply-to-demand interface deck 1 energy check value iteration history trace: 2206.003315,2206.003314,2206.003314,2206.003314,2206.003314,2206.003314,2206.003314,2206.003314,2206.003314,2206.003314,
   ** Warning ** SimHVAC: Maximum iterations (20) exceeded for all HVAC loops, at ANNUAL, 12/01 09:30 - 09:33
   **   ~~~   ** The solution for one or more of the Air Loop HVAC systems did not appear to converge
   **   ~~~   ** Air System Named = CENTRAL SYSTEM did not converge for mass flow rate
   **   ~~~   ** Check values should be zero. Most Recent values listed first.
   **   ~~~   ** Demand-to-Supply interface mass flow rate check value iteration history trace: 5.788874E-002,5.788874E-002,5.788874E-002,5.788874E-002,5.788874E-002,5.788874E-002,5.788874E-002,5.788874E-002,5.788874E-002,5.788874E-002,
   **   ~~~   ** Supply-to-demand interface deck 1 mass flow rate check value iteration history trace: 5.788874E-002,5.788874E-002,5.788874E-002,5.788874E-002,5.788874E-002,5.788874E-002,5.788874E-002,5.788874E-002,5.788874E-002,5.788874E-002,
   **   ~~~   ** Air System Named = CENTRAL SYSTEM did not converge for energy
   **   ~~~   ** Check values should be zero. Most Recent values listed first.
   **   ~~~   ** Demand-to-Supply interface energy check value iteration history trace: 1145.079562,1145.079561,1145.079561,1145.079561,1145.079561,1145.079561,1145.079561,1145.079561,1145.079561,1145.079561,
   **   ~~~   ** Supply-to-demand interface deck 1 energy check value iteration history trace: 1960.497310,1960.497310,1960.497310,1960.497310,1960.497310,1960.497310,1960.497310,1960.497310,1960.497310,1960.497309,
   ** Warning ** SimHVAC: Maximum iterations (20) exceeded for all HVAC loops, at ANNUAL, 12/03 08:15 - 08:20
   **   ~~~   ** The solution for one or more of the Air Loop HVAC systems did not appear to converge
   **   ~~~   ** Air System Named = CENTRAL SYSTEM did not converge for mass flow rate
   **   ~~~   ** Check values should be zero. Most Recent values listed first.
   **   ~~~   ** Demand-to-Supply interface mass flow rate check value iteration history trace: 5.520368E-002,5.520368E-002,5.520368E-002,5.520368E-002,5.520368E-002,5.520368E-002,5.520368E-002,5.520368E-002,5.520368E-002,5.520368E-002,
   **   ~~~   ** Supply-to-demand interface deck 1 mass flow rate check value iteration history trace: 5.520368E-002,5.520368E-002,5.520368E-002,5.520368E-002,5.520368E-002,5.520368E-002,5.520368E-002,5.520368E-002,5.520368E-002,5.520368E-002,
   **   ~~~   ** Air System Named = CENTRAL SYSTEM did not converge for energy
   **   ~~~   ** Check values should be zero. Most Recent values listed first.
   **   ~~~   ** Demand-to-Supply interface energy check value iteration history trace: 1093.947899,1093.947899,1093.947899,1093.947899,1093.947899,1093.947899,1093.947899,1093.947899,1093.947899,1093.947899,
   **   ~~~   ** Supply-to-demand interface deck 1 energy check value iteration history trace: 1938.782826,1938.782826,1938.782826,1938.782826,1938.782826,1938.782826,1938.782826,1938.782825,1938.782825,1938.782825,
   ** Warning ** SimHVAC: Maximum iterations (20) exceeded for all HVAC loops, at ANNUAL, 12/04 18:53 - 19:00
   **   ~~~   ** The solution for one or more of the Air Loop HVAC systems did not appear to converge
   **   ~~~   ** Air System Named = CENTRAL SYSTEM did not converge for mass flow rate
   **   ~~~   ** Check values should be zero. Most Recent values listed first.
   **   ~~~   ** Demand-to-Supply interface mass flow rate check value iteration history trace: 0.123803,0.123803,0.123803,0.123803,0.123803,0.123803,0.123803,0.123803,0.123803,0.123803,
   **   ~~~   ** Supply-to-demand interface deck 1 mass flow rate check value iteration history trace: 0.123803,0.123803,0.123803,0.123803,0.123803,0.123803,0.123803,0.123803,0.123803,0.123803,
   **   ~~~   ** Air System Named = CENTRAL SYSTEM did not converge for energy
   **   ~~~   ** Check values should be zero. Most Recent values listed first.
   **   ~~~   ** Demand-to-Supply interface energy check value iteration history trace: 2944.031132,2944.031132,2944.031133,2944.031134,2944.031134,2944.031135,2944.031136,2944.031136,2944.031137,2944.031137,
   **   ~~~   ** Supply-to-demand interface deck 1 energy check value iteration history trace: 1083.160115,1083.160115,1083.160116,1083.160116,1083.160116,1083.160116,1083.160117,1083.160117,1083.160117,1083.160117,
   ** Warning ** SimHVAC: Maximum iterations (20) exceeded for all HVAC loops, at ANNUAL, 12/10 08:55 - 09:00
   **   ~~~   ** The solution for one or more of the Air Loop HVAC systems did not appear to converge
   **   ~~~   ** Air System Named = CENTRAL SYSTEM did not converge for mass flow rate
   **   ~~~   ** Check values should be zero. Most Recent values listed first.
   **   ~~~   ** Demand-to-Supply interface mass flow rate check value iteration history trace: 6.483690E-002,6.483690E-002,6.483690E-002,6.483690E-002,6.483690E-002,6.483690E-002,6.483690E-002,6.483690E-002,6.483690E-002,6.483690E-002,
   **   ~~~   ** Supply-to-demand interface deck 1 mass flow rate check value iteration history trace: 6.483690E-002,6.483690E-002,6.483690E-002,6.483690E-002,6.483690E-002,6.483690E-002,6.483690E-002,6.483690E-002,6.483690E-002,6.483690E-002,
   **   ~~~   ** Air System Named = CENTRAL SYSTEM did not converge for energy
   **   ~~~   ** Check values should be zero. Most Recent values listed first.
   **   ~~~   ** Demand-to-Supply interface energy check value iteration history trace: 1284.839029,1284.839029,1284.839029,1284.839029,1284.839029,1284.839029,1284.839029,1284.839029,1284.839028,1284.839028,
   **   ~~~   ** Supply-to-demand interface deck 1 energy check value iteration history trace: 2232.359866,2232.359866,2232.359866,2232.359866,2232.359866,2232.359866,2232.359865,2232.359865,2232.359865,2232.359865,
   ************* Simulation Error Summary *************
   ** Warning ** The following Report Variables were requested but not generated -- check.rdd file
   **   ~~~   ** Either the IDF did not contain these elements, the variable name is misspelled,
   **   ~~~   ** or the requested variable is an advanced output which requires Output : Diagnostics, DisplayAdvancedReportVariables;
   ************* Key=*, VarName=BASEBOARD TOTAL HEATING ENERGY, Frequency=
   ************* Key=*, VarName=WATER HEATER NATURALGAS ENERGY, Frequency=
   ************* Key=*, VarName=COOLING COIL TOTAL HEATING ENERGY, Frequency=
   ************* There are 34 unused schedules in input.
   ************* There are 388 unused week schedules in input.
   ************* There are 397 unused day schedules in input.
   ************* Use Output:Diagnostics,DisplayUnusedSchedules; to see them.
   *************
   ************* ===== Recurring Error Summary =====
   ************* The following recurring error messages occurred.
   *************
   *************  ** Warning ** "TOTAL HOT WATER LOAD" - Target water temperature should be less than or equal to the hot water temperature error continues...
   *************  **   ~~~   **   This error occurred 99371 total times;
   *************  **   ~~~   **   during Warmup 0 times;
   *************  **   ~~~   **   during Sizing 0 times.
   *************  **   ~~~   **   Max=9.401008  Min=6.483514E-004
   *************
   *************  ** Warning ** SimHVAC: Exceeding Maximum iterations for all HVAC loops, during ANNUAL continues
   *************  **   ~~~   **   This error occurred 1 total times;
   *************  **   ~~~   **   during Warmup 0 times;
   *************  **   ~~~   **   during Sizing 0 times.
   *************
   *************
   ************* ===== Final Error Summary =====
   ************* The following error categories occurred.  Consider correcting or noting.
   ************* Nominally Unused Constructions
   ************* ..The nominally unused constructions warning is provided to alert you to potential conditions that can cause
   ************* ..extra time during simulation. Each construction is calculated by the algorithm indicated in the HeatBalanceAlgorithm
   ************* ..object. You may remove the constructions indicated (when you use the DisplayExtraWarnings option).
   *************
   ************* EnergyPlus Warmup Error Summary. During Warmup: 0 Warning; 0 Severe Errors.
   ************* EnergyPlus Sizing Error Summary. During Sizing: 4 Warning; 0 Severe Errors.
   ************* EnergyPlus Completed Successfully-- 99403 Warning; 0 Severe Errors; Elapsed Time=00hr 01min 34.42sec
