Program Version,EnergyPlus, Version 22.2.0-c249759bad, YMD=2023.09.01 20:06,
   ************* Beginning Zone Sizing Calculations
   ** Warning ** ProcessScheduleInput: Schedule:Constant="ALWAYS ON DISCRETE", Schedule Type Limits Name="ONOFF" not found -- will not be validated
   ** Warning ** Foundation:Kiva="KIVA FOUNDATION", no Interior Horizontal Insulation Material Name defined
   **   ~~~   ** Interior Horizontal Insulation Depth will not be used.
   ** Warning ** CheckUsedConstructions: There are 15 nominally unused constructions in input.
   **   ~~~   ** Each Unused construction is shown.
   ************* Construction=INTERIOR FLOOR
   ************* Construction=INTERIOR WINDOW
   ************* Construction=EXTERIOR DOOR
   ************* Construction=INTERIOR DOOR
   ************* Construction=GABLE CONSTRUCTION
   ************* Construction=CRAWL_FLOOR
   ************* Construction=INSULATED PIPE
   ************* Construction=PLAIN PIPE
   ************* Construction=TDD PIPE
   ************* Construction=TDD DOME
   ************* Construction=TDD DIFFUSER
   ************* Construction=CRAWL WALL
   ************* Construction=CEILING-FLOOR-LAYER
   ************* Construction=SLAB CONSTRUCTION W FULL R10 INSULATION
   ************* Construction=SLAB CONSTRUCTION W FULL R5 INSULATION
   ** Warning ** GetDXCoils: Coil:Heating:DX:SingleSpeed="DX_HEATING_COIL" curve values
   **   ~~~   ** ... Defrost Energy Input Ratio Function of Temperature Curve Name = DEFROSTEIR output is not equal to 1.0 (+ or - 10%) at rated conditions.
   **   ~~~   ** ... Curve output at rated conditions = 0.152
   ************* Beginning System Sizing Calculations
   ************* Beginning Plant Sizing Calculations
   ** Warning ** SizeDXCoil Coil:Cooling:DX:SingleSpeed DX_COOLING_COIL
   **   ~~~   ** ...Gross Rated Total Cooling Capacity [W] will be limited by the maximum rated volume flow per rated total capacity ratio.
   **   ~~~   ** ...DX coil volume flow rate ( m3/s ) = 0.374117
   **   ~~~   ** ...Requested capacity ( W ) = 5892.278
   **   ~~~   ** ...Requested flow/capacity ratio ( m3/s/W ) = 6.349E-005
   **   ~~~   ** ...Maximum flow/capacity ratio ( m3/s/W ) = 6.041E-005
   **   ~~~   ** ...Adjusted capacity ( W ) = 6192.972
   ** Warning ** SizeDXCoil Coil:Heating:DX:SingleSpeed DX_HEATING_COIL
   **   ~~~   ** ...Gross Rated Heating Capacity [W] will be limited by the maximum rated volume flow per rated total capacity ratio.
   **   ~~~   ** ...DX coil volume flow rate ( m3/s ) = 0.374117
   **   ~~~   ** ...Requested capacity ( W ) = 6192.972
   **   ~~~   ** ...Requested flow/capacity ratio ( m3/s/W ) = 6.041E-005
   **   ~~~   ** ...Maximum flow/capacity ratio ( m3/s/W ) = 6.041E-005
   **   ~~~   ** ...Adjusted capacity ( W ) = 6192.972
   ** Warning ** Coil:WaterHeating:AirToWaterHeatPump:Wrapped "HEAT PUMP WATER HEATER EVAPORATOR": Rated air volume flow rate per watt of rated total water heating capacity is out of range
   **   ~~~   ** Min Rated Vol Flow Per Watt=[4.027E-005], Rated Vol Flow Per Watt=[1.510E-004], Max Rated Vol Flow Per Watt=[8.056E-005]. See Input-Output Reference Manual for valid range.
   ************* SizeFan: : Potential issue with equipment sizing for Fan:OnOff HEAT PUMP WATER HEATER FAN
   **   ~~~   ** User-Specified Maximum Flow Rate [m3/s] = 0.22653
   **   ~~~   ** differs from Design Size Maximum Flow Rate [m3/s] = 7.55250E-002
   **   ~~~   ** This may, or may not, indicate mismatched component sizes.
   **   ~~~   ** Verify that the value entered is intended and is consistent with other components.
   ** Warning ** Water heater = WATER HEATER TANK:  Recovery Efficiency and Energy Factor could not be calculated during the test for standard ratings
   **   ~~~   ** Setpoint was never recovered and/or heater never turned on
   ** Warning ** Check input. Pump nominal power or motor efficiency is set to 0, for pump=MAINS PRESSURE
   ** Warning ** Output:Meter: invalid Key Name="ELECTRIC_RANGE:INTERIOREQUIPMENT:ELECTRICITY" - not found.
   ** Warning ** Output:Meter: invalid Key Name="ELECTRIC_DRYER:INTERIOREQUIPMENT:ELECTRICITY" - not found.
   ** Warning ** Output:Meter: invalid Key Name="HEATRECOVERY:ELECTRICITY" - not found.
   ** Warning ** Output:Meter: invalid Key Name="HEATING:NATURALGAS" - not found.
   ** Warning ** Output:Meter: invalid Key Name="WATERSYSTEMS:NATURALGAS" - not found.
   ** Warning ** Output:Meter: invalid Key Name="PROPANE:FACILITY" - not found.
   ** Warning ** Output:Meter: invalid Key Name="HEATING:PROPANE" - not found.
   ************* Testing Individual Branch Integrity
   ************* All Branches passed integrity testing
   ************* Testing Individual Supply Air Path Integrity
   ************* All Supply Air Paths passed integrity testing
   ************* Testing Individual Return Air Path Integrity
   ************* All Return Air Paths passed integrity testing
   ************* No node connection errors were found.
   ************* Beginning Simulation
   ** Warning ** AirflowNetwork::Solver::validate_distribution: Heat pump water heater is simulated along with an AirflowNetwork but is not included in the AirflowNetwork.
   ** Warning ** CalcEquipmentFlowRates: "TOTAL HOT WATER LOAD" - Target water temperature is greater than the hot water temperature by (3.91 C)
   **   ~~~   **  Environment=EXTREME_WINTER, at Simulation time=01/18 07:00 - 07:15
   **   ~~~   ** ...target water temperature     = 53.33 C
   **   ~~~   ** ...hot water temperature        = 49.42 C
   **   ~~~   ** ...Target water temperature should be less than or equal to the hot water temperature. Verify temperature setpoints and schedules.
   ** Warning ** SimHVAC: Maximum iterations (20) exceeded for all HVAC loops, at EXTREME_WINTER, 01/18 12:00 - 12:15
   **   ~~~   ** The solution for one or more of the Air Loop HVAC systems did not appear to converge
   **   ~~~   ** Air System Named = CENTRAL SYSTEM did not converge for mass flow rate
   **   ~~~   ** Check values should be zero. Most Recent values listed first.
   **   ~~~   ** Demand-to-Supply interface mass flow rate check value iteration history trace: 9.789391E-002,9.789391E-002,9.789391E-002,9.789391E-002,9.789391E-002,9.789391E-002,9.789391E-002,9.789391E-002,9.789391E-002,9.789391E-002,
   **   ~~~   ** Supply-to-demand interface deck 1 mass flow rate check value iteration history trace: 9.789391E-002,9.789391E-002,9.789391E-002,9.789391E-002,9.789391E-002,9.789391E-002,9.789391E-002,9.789391E-002,9.789391E-002,9.789391E-002,
   **   ~~~   ** Air System Named = CENTRAL SYSTEM did not converge for energy
   **   ~~~   ** Check values should be zero. Most Recent values listed first.
   **   ~~~   ** Demand-to-Supply interface energy check value iteration history trace: 1939.868496,1939.868496,1939.868496,1939.868496,1939.868495,1939.868495,1939.868495,1939.868495,1939.868495,1939.868495,
   **   ~~~   ** Supply-to-demand interface deck 1 energy check value iteration history trace: 2894.652717,2894.652717,2894.652716,2894.652716,2894.652716,2894.652716,2894.652715,2894.652715,2894.652715,2894.652715,
   ** Warning ** SimHVAC: Maximum iterations (20) exceeded for all HVAC loops, at ANNUAL, 01/08 21:00 - 21:05
   **   ~~~   ** The solution for one or more of the Air Loop HVAC systems did not appear to converge
   **   ~~~   ** Air System Named = CENTRAL SYSTEM did not converge for mass flow rate
   **   ~~~   ** Check values should be zero. Most Recent values listed first.
   **   ~~~   ** Demand-to-Supply interface mass flow rate check value iteration history trace: 0.107334,0.107334,0.107334,0.107334,0.107334,0.107334,0.107334,0.107334,0.107334,0.107334,
   **   ~~~   ** Supply-to-demand interface deck 1 mass flow rate check value iteration history trace: 0.107334,0.107334,0.107334,0.107334,0.107334,0.107334,0.107334,0.107334,0.107334,0.107334,
   **   ~~~   ** Air System Named = CENTRAL SYSTEM did not converge for energy
   **   ~~~   ** Check values should be zero. Most Recent values listed first.
   **   ~~~   ** Demand-to-Supply interface energy check value iteration history trace: 2117.956945,2117.956944,2117.956944,2117.956944,2117.956944,2117.956944,2117.956944,2117.956944,2117.956943,2117.956943,
   **   ~~~   ** Supply-to-demand interface deck 1 energy check value iteration history trace: 3120.594726,3120.594726,3120.594726,3120.594726,3120.594725,3120.594725,3120.594725,3120.594725,3120.594725,3120.594724,
   ** Warning ** SimHVAC: Maximum iterations (20) exceeded for all HVAC loops, at ANNUAL, 01/08 23:15 - 23:22
   **   ~~~   ** The solution for one or more of the Air Loop HVAC systems did not appear to converge
   **   ~~~   ** Air System Named = CENTRAL SYSTEM did not converge for mass flow rate
   **   ~~~   ** Check values should be zero. Most Recent values listed first.
   **   ~~~   ** Demand-to-Supply interface mass flow rate check value iteration history trace: 8.547607E-002,8.547607E-002,8.547607E-002,8.547607E-002,8.547607E-002,8.547607E-002,8.547607E-002,8.547607E-002,8.547607E-002,8.547607E-002,
   **   ~~~   ** Supply-to-demand interface deck 1 mass flow rate check value iteration history trace: 8.547607E-002,8.547607E-002,8.547607E-002,8.547607E-002,8.547607E-002,8.547607E-002,8.547607E-002,8.547607E-002,8.547607E-002,8.547607E-002,
   **   ~~~   ** Air System Named = CENTRAL SYSTEM did not converge for energy
   **   ~~~   ** Check values should be zero. Most Recent values listed first.
   **   ~~~   ** Demand-to-Supply interface energy check value iteration history trace: 1595.043115,1595.043115,1595.043115,1595.043115,1595.043115,1595.043115,1595.043115,1595.043115,1595.043115,1595.043114,
   **   ~~~   ** Supply-to-demand interface deck 1 energy check value iteration history trace: 2422.882415,2422.882414,2422.882414,2422.882414,2422.882414,2422.882414,2422.882414,2422.882414,2422.882414,2422.882413,
   ** Warning ** SimHVAC: Maximum iterations (20) exceeded for all HVAC loops, at ANNUAL, 01/23 12:45 - 12:50
   **   ~~~   ** The solution for one or more of the Air Loop HVAC systems did not appear to converge
   **   ~~~   ** Air System Named = CENTRAL SYSTEM did not converge for mass flow rate
   **   ~~~   ** Check values should be zero. Most Recent values listed first.
   **   ~~~   ** Demand-to-Supply interface mass flow rate check value iteration history trace: 8.182955E-002,8.182955E-002,8.182955E-002,8.182955E-002,8.182955E-002,8.182955E-002,8.182955E-002,8.182955E-002,8.182955E-002,8.182955E-002,
   **   ~~~   ** Supply-to-demand interface deck 1 mass flow rate check value iteration history trace: 8.182955E-002,8.182955E-002,8.182955E-002,8.182955E-002,8.182955E-002,8.182955E-002,8.182955E-002,8.182955E-002,8.182955E-002,8.182955E-002,
   **   ~~~   ** Air System Named = CENTRAL SYSTEM did not converge for energy
   **   ~~~   ** Check values should be zero. Most Recent values listed first.
   **   ~~~   ** Demand-to-Supply interface energy check value iteration history trace: 1621.408291,1621.408291,1621.408291,1621.408290,1621.408290,1621.408290,1621.408290,1621.408290,1621.408290,1621.408290,
   **   ~~~   ** Supply-to-demand interface deck 1 energy check value iteration history trace: 2426.212785,2426.212785,2426.212784,2426.212784,2426.212784,2426.212784,2426.212784,2426.212783,2426.212783,2426.212783,
   ** Warning ** SimHVAC: Maximum iterations (20) exceeded for all HVAC loops, at ANNUAL, 02/11 11:00 - 11:02
   **   ~~~   ** The solution for one or more of the Air Loop HVAC systems did not appear to converge
   **   ~~~   ** Air System Named = CENTRAL SYSTEM did not converge for mass flow rate
   **   ~~~   ** Check values should be zero. Most Recent values listed first.
   **   ~~~   ** Demand-to-Supply interface mass flow rate check value iteration history trace: 9.277502E-002,9.277502E-002,9.277502E-002,9.277502E-002,9.277502E-002,9.277502E-002,9.277502E-002,9.277502E-002,9.277502E-002,9.277502E-002,
   **   ~~~   ** Supply-to-demand interface deck 1 mass flow rate check value iteration history trace: 9.277502E-002,9.277502E-002,9.277502E-002,9.277502E-002,9.277502E-002,9.277502E-002,9.277502E-002,9.277502E-002,9.277502E-002,9.277502E-002,
   **   ~~~   ** Air System Named = CENTRAL SYSTEM did not converge for energy
   **   ~~~   ** Check values should be zero. Most Recent values listed first.
   **   ~~~   ** Demand-to-Supply interface energy check value iteration history trace: 1838.541833,1838.541833,1838.541833,1838.541832,1838.541832,1838.541832,1838.541832,1838.541832,1838.541832,1838.541832,
   **   ~~~   ** Supply-to-demand interface deck 1 energy check value iteration history trace: 2804.115879,2804.115879,2804.115879,2804.115878,2804.115878,2804.115878,2804.115878,2804.115878,2804.115878,2804.115877,
   ** Warning ** SimHVAC: Maximum iterations (20) exceeded for all HVAC loops, at ANNUAL, 03/17 08:30 - 08:32
   **   ~~~   ** The solution for one or more of the Air Loop HVAC systems did not appear to converge
   **   ~~~   ** Air System Named = CENTRAL SYSTEM did not converge for mass flow rate
   **   ~~~   ** Check values should be zero. Most Recent values listed first.
   **   ~~~   ** Demand-to-Supply interface mass flow rate check value iteration history trace: 9.797050E-002,9.797050E-002,9.797050E-002,9.797050E-002,9.797050E-002,9.797050E-002,9.797050E-002,9.797050E-002,9.797050E-002,9.797050E-002,
   **   ~~~   ** Supply-to-demand interface deck 1 mass flow rate check value iteration history trace: 9.797050E-002,9.797050E-002,9.797050E-002,9.797050E-002,9.797050E-002,9.797050E-002,9.797050E-002,9.797050E-002,9.797050E-002,9.797050E-002,
   **   ~~~   ** Air System Named = CENTRAL SYSTEM did not converge for energy
   **   ~~~   ** Check values should be zero. Most Recent values listed first.
   **   ~~~   ** Demand-to-Supply interface energy check value iteration history trace: 1941.401051,1941.401051,1941.401050,1941.401050,1941.401050,1941.401050,1941.401050,1941.401050,1941.401050,1941.401050,
   **   ~~~   ** Supply-to-demand interface deck 1 energy check value iteration history trace: 2941.682473,2941.682473,2941.682473,2941.682473,2941.682472,2941.682472,2941.682472,2941.682472,2941.682472,2941.682472,
   ** Warning ** SimHVAC: Maximum iterations (20) exceeded for all HVAC loops, at ANNUAL, 03/19 09:23 - 09:30
   **   ~~~   ** The solution for one or more of the Air Loop HVAC systems did not appear to converge
   **   ~~~   ** Air System Named = CENTRAL SYSTEM did not converge for mass flow rate
   **   ~~~   ** Check values should be zero. Most Recent values listed first.
   **   ~~~   ** Demand-to-Supply interface mass flow rate check value iteration history trace: 0.105510,0.105510,0.105510,0.105510,0.105510,0.105510,0.105510,0.105510,0.105510,0.105510,
   **   ~~~   ** Supply-to-demand interface deck 1 mass flow rate check value iteration history trace: 0.105510,0.105510,0.105510,0.105510,0.105510,0.105510,0.105510,0.105510,0.105510,0.105510,
   **   ~~~   ** Air System Named = CENTRAL SYSTEM did not converge for energy
   **   ~~~   ** Check values should be zero. Most Recent values listed first.
   **   ~~~   ** Demand-to-Supply interface energy check value iteration history trace: 2089.773279,2089.773279,2089.773279,2089.773279,2089.773279,2089.773279,2089.773279,2089.773278,2089.773278,2089.773278,
   **   ~~~   ** Supply-to-demand interface deck 1 energy check value iteration history trace: 3227.423805,3227.423805,3227.423805,3227.423804,3227.423804,3227.423804,3227.423804,3227.423804,3227.423803,3227.423803,
   ** Warning ** SimHVAC: Maximum iterations (20) exceeded for all HVAC loops, at ANNUAL, 03/19 10:45 - 11:00
   **   ~~~   ** The solution for one or more of the Air Loop HVAC systems did not appear to converge
   **   ~~~   ** Air System Named = CENTRAL SYSTEM did not converge for mass flow rate
   **   ~~~   ** Check values should be zero. Most Recent values listed first.
   **   ~~~   ** Demand-to-Supply interface mass flow rate check value iteration history trace: 0.101663,0.101663,0.101663,0.101663,0.101663,0.101663,0.101663,0.101663,0.101663,0.101663,
   **   ~~~   ** Supply-to-demand interface deck 1 mass flow rate check value iteration history trace: 0.101663,0.101663,0.101663,0.101663,0.101663,0.101663,0.101663,0.101663,0.101663,0.101663,
   **   ~~~   ** Air System Named = CENTRAL SYSTEM did not converge for energy
   **   ~~~   ** Check values should be zero. Most Recent values listed first.
   **   ~~~   ** Demand-to-Supply interface energy check value iteration history trace: 2014.407053,2014.407053,2014.407053,2014.407053,2014.407053,2014.407053,2014.407053,2014.407053,2014.407053,2014.407053,
   **   ~~~   ** Supply-to-demand interface deck 1 energy check value iteration history trace: 3129.154802,3129.154802,3129.154802,3129.154802,3129.154802,3129.154802,3129.154802,3129.154801,3129.154801,3129.154801,
   ** Warning ** SimHVAC: Maximum iterations (20) exceeded for all HVAC loops, at ANNUAL, 03/29 11:30 - 11:45
   **   ~~~   ** The solution for one or more of the Air Loop HVAC systems did not appear to converge
   **   ~~~   ** Air System Named = CENTRAL SYSTEM did not converge for mass flow rate
   **   ~~~   ** Check values should be zero. Most Recent values listed first.
   **   ~~~   ** Demand-to-Supply interface mass flow rate check value iteration history trace: 8.004991E-002,8.004991E-002,8.004991E-002,8.004991E-002,8.004991E-002,8.004991E-002,8.004991E-002,8.004991E-002,8.004991E-002,8.004991E-002,
   **   ~~~   ** Supply-to-demand interface deck 1 mass flow rate check value iteration history trace: 8.004991E-002,8.004991E-002,8.004991E-002,8.004991E-002,8.004991E-002,8.004991E-002,8.004991E-002,8.004991E-002,8.004991E-002,8.004991E-002,
   **   ~~~   ** Air System Named = CENTRAL SYSTEM did not converge for energy
   **   ~~~   ** Check values should be zero. Most Recent values listed first.
   **   ~~~   ** Demand-to-Supply interface energy check value iteration history trace: 1586.261728,1586.261728,1586.261728,1586.261728,1586.261728,1586.261728,1586.261728,1586.261728,1586.261728,1586.261727,
   **   ~~~   ** Supply-to-demand interface deck 1 energy check value iteration history trace: 2497.842922,2497.842922,2497.842922,2497.842922,2497.842922,2497.842921,2497.842921,2497.842921,2497.842921,2497.842921,
   ** Warning ** SimHVAC: Maximum iterations (20) exceeded for all HVAC loops, at ANNUAL, 03/30 23:15 - 23:30
   **   ~~~   ** The solution for one or more of the Air Loop HVAC systems did not appear to converge
   **   ~~~   ** Air System Named = CENTRAL SYSTEM did not converge for mass flow rate
   **   ~~~   ** Check values should be zero. Most Recent values listed first.
   **   ~~~   ** Demand-to-Supply interface mass flow rate check value iteration history trace: 9.184788E-002,9.184788E-002,9.184788E-002,9.184788E-002,9.184788E-002,9.184788E-002,9.184788E-002,9.184788E-002,9.184788E-002,9.184788E-002,
   **   ~~~   ** Supply-to-demand interface deck 1 mass flow rate check value iteration history trace: 9.184788E-002,9.184788E-002,9.184788E-002,9.184788E-002,9.184788E-002,9.184788E-002,9.184788E-002,9.184788E-002,9.184788E-002,9.184788E-002,
   **   ~~~   ** Air System Named = CENTRAL SYSTEM did not converge for energy
   **   ~~~   ** Check values should be zero. Most Recent values listed first.
   **   ~~~   ** Demand-to-Supply interface energy check value iteration history trace: 1715.235263,1715.235263,1715.235263,1715.235263,1715.235263,1715.235263,1715.235262,1715.235262,1715.235262,1715.235262,
   **   ~~~   ** Supply-to-demand interface deck 1 energy check value iteration history trace: 2587.094784,2587.094784,2587.094784,2587.094783,2587.094783,2587.094783,2587.094783,2587.094783,2587.094782,2587.094782,
   ** Warning ** SimHVAC: Maximum iterations (20) exceeded for all HVAC loops, at ANNUAL, 03/31 19:30 - 19:45
   **   ~~~   ** The solution for one or more of the Air Loop HVAC systems did not appear to converge
   **   ~~~   ** Air System Named = CENTRAL SYSTEM did not converge for mass flow rate
   **   ~~~   ** Check values should be zero. Most Recent values listed first.
   **   ~~~   ** Demand-to-Supply interface mass flow rate check value iteration history trace: 0.118486,0.118486,0.118486,0.118486,0.118486,0.118486,0.118486,0.118486,0.118486,0.118486,
   **   ~~~   ** Supply-to-demand interface deck 1 mass flow rate check value iteration history trace: 0.118486,0.118486,0.118486,0.118486,0.118486,0.118486,0.118486,0.118486,0.118486,0.118486,
   **   ~~~   ** Air System Named = CENTRAL SYSTEM did not converge for energy
   **   ~~~   ** Check values should be zero. Most Recent values listed first.
   **   ~~~   ** Demand-to-Supply interface energy check value iteration history trace: 2340.533914,2340.533914,2340.533913,2340.533913,2340.533913,2340.533913,2340.533913,2340.533913,2340.533912,2340.533912,
   **   ~~~   ** Supply-to-demand interface deck 1 energy check value iteration history trace: 3482.044702,3482.044702,3482.044701,3482.044701,3482.044701,3482.044701,3482.044700,3482.044700,3482.044700,3482.044700,
   ** Warning ** SimHVAC: Maximum iterations (20) exceeded for all HVAC loops, at ANNUAL, 04/02 10:49 - 10:51
   **   ~~~   ** The solution for one or more of the Air Loop HVAC systems did not appear to converge
   **   ~~~   ** Air System Named = CENTRAL SYSTEM did not converge for mass flow rate
   **   ~~~   ** Check values should be zero. Most Recent values listed first.
   **   ~~~   ** Demand-to-Supply interface mass flow rate check value iteration history trace: 7.700266E-002,7.700266E-002,7.700266E-002,7.700266E-002,7.700266E-002,7.700266E-002,7.700266E-002,7.700266E-002,7.700266E-002,7.700266E-002,
   **   ~~~   ** Supply-to-demand interface deck 1 mass flow rate check value iteration history trace: 7.700266E-002,7.700266E-002,7.700266E-002,7.700266E-002,7.700266E-002,7.700266E-002,7.700266E-002,7.700266E-002,7.700266E-002,7.700266E-002,
   **   ~~~   ** Air System Named = CENTRAL SYSTEM did not converge for energy
   **   ~~~   ** Check values should be zero. Most Recent values listed first.
   **   ~~~   ** Demand-to-Supply interface energy check value iteration history trace: 1526.042243,1526.042243,1526.042243,1526.042243,1526.042243,1526.042243,1526.042243,1526.042243,1526.042243,1526.042243,
   **   ~~~   ** Supply-to-demand interface deck 1 energy check value iteration history trace: 2557.346421,2557.346421,2557.346420,2557.346420,2557.346420,2557.346420,2557.346420,2557.346420,2557.346420,2557.346420,
   ** Warning ** SimHVAC: Maximum iterations (20) exceeded for all HVAC loops, at ANNUAL, 04/10 00:11 - 00:15
   **   ~~~   ** The solution for one or more of the Air Loop HVAC systems did not appear to converge
   **   ~~~   ** Air System Named = CENTRAL SYSTEM did not converge for mass flow rate
   **   ~~~   ** Check values should be zero. Most Recent values listed first.
   **   ~~~   ** Demand-to-Supply interface mass flow rate check value iteration history trace: 8.349723E-002,8.349723E-002,8.349723E-002,8.349723E-002,8.349723E-002,8.349723E-002,8.349723E-002,8.349723E-002,8.349723E-002,8.349723E-002,
   **   ~~~   ** Supply-to-demand interface deck 1 mass flow rate check value iteration history trace: 8.349723E-002,8.349723E-002,8.349723E-002,8.349723E-002,8.349723E-002,8.349723E-002,8.349723E-002,8.349723E-002,8.349723E-002,8.349723E-002,
   **   ~~~   ** Air System Named = CENTRAL SYSTEM did not converge for energy
   **   ~~~   ** Check values should be zero. Most Recent values listed first.
   **   ~~~   ** Demand-to-Supply interface energy check value iteration history trace: 1555.132131,1555.132131,1555.132131,1555.132131,1555.132131,1555.132131,1555.132130,1555.132130,1555.132130,1555.132130,
   **   ~~~   ** Supply-to-demand interface deck 1 energy check value iteration history trace: 2353.476021,2353.476021,2353.476021,2353.476020,2353.476020,2353.476020,2353.476020,2353.476020,2353.476020,2353.476020,
   ** Warning ** SimHVAC: Maximum iterations (20) exceeded for all HVAC loops, at ANNUAL, 04/11 14:00 - 14:08
   **   ~~~   ** The solution for one or more of the Air Loop HVAC systems did not appear to converge
   **   ~~~   ** Air System Named = CENTRAL SYSTEM did not converge for mass flow rate
   **   ~~~   ** Check values should be zero. Most Recent values listed first.
   **   ~~~   ** Demand-to-Supply interface mass flow rate check value iteration history trace: 6.404378E-002,6.404378E-002,6.404378E-002,6.404378E-002,6.404378E-002,6.404378E-002,6.404378E-002,6.404378E-002,6.404378E-002,6.404378E-002,
   **   ~~~   ** Supply-to-demand interface deck 1 mass flow rate check value iteration history trace: 6.404378E-002,6.404378E-002,6.404378E-002,6.404378E-002,6.404378E-002,6.404378E-002,6.404378E-002,6.404378E-002,6.404378E-002,6.404378E-002,
   **   ~~~   ** Air System Named = CENTRAL SYSTEM did not converge for energy
   **   ~~~   ** Check values should be zero. Most Recent values listed first.
   **   ~~~   ** Demand-to-Supply interface energy check value iteration history trace: 1269.745932,1269.745932,1269.745932,1269.745932,1269.745932,1269.745932,1269.745932,1269.745932,1269.745932,1269.745932,
   **   ~~~   ** Supply-to-demand interface deck 1 energy check value iteration history trace: 2175.633982,2175.633982,2175.633982,2175.633982,2175.633982,2175.633982,2175.633982,2175.633982,2175.633982,2175.633982,
   ************* Simulation Error Summary *************
   ** Warning ** The following Report Variables were requested but not generated -- check.rdd file
   **   ~~~   ** Either the IDF did not contain these elements, the variable name is misspelled,
   **   ~~~   ** or the requested variable is an advanced output which requires Output : Diagnostics, DisplayAdvancedReportVariables;
   ************* Key=*, VarName=BASEBOARD TOTAL HEATING ENERGY, Frequency=
   ************* Key=*, VarName=WATER HEATER NATURALGAS ENERGY, Frequency=
   ************* Key=*, VarName=COOLING COIL TOTAL HEATING ENERGY, Frequency=
   ************* There are 34 unused schedules in input.
   ************* There are 388 unused week schedules in input.
   ************* There are 396 unused day schedules in input.
   ************* Use Output:Diagnostics,DisplayUnusedSchedules; to see them.
   *************
   ************* ===== Recurring Error Summary =====
   ************* The following recurring error messages occurred.
   *************
   *************  ** Warning ** "TOTAL HOT WATER LOAD" - Target water temperature should be less than or equal to the hot water temperature error continues...
   *************  **   ~~~   **   This error occurred 166427 total times;
   *************  **   ~~~   **   during Warmup 0 times;
   *************  **   ~~~   **   during Sizing 0 times.
   *************  **   ~~~   **   Max=15.032836  Min=2.916373E-004
   *************
   *************  ** Warning ** SimHVAC: Exceeding Maximum iterations for all HVAC loops, during ANNUAL continues
   *************  **   ~~~   **   This error occurred 29 total times;
   *************  **   ~~~   **   during Warmup 0 times;
   *************  **   ~~~   **   during Sizing 0 times.
   *************
   *************
   ************* ===== Final Error Summary =====
   ************* The following error categories occurred.  Consider correcting or noting.
   ************* Nominally Unused Constructions
   ************* ..The nominally unused constructions warning is provided to alert you to potential conditions that can cause
   ************* ..extra time during simulation. Each construction is calculated by the algorithm indicated in the HeatBalanceAlgorithm
   ************* ..object. You may remove the constructions indicated (when you use the DisplayExtraWarnings option).
   *************
   ************* EnergyPlus Warmup Error Summary. During Warmup: 1 Warning; 0 Severe Errors.
   ************* EnergyPlus Sizing Error Summary. During Sizing: 4 Warning; 0 Severe Errors.
   ************* EnergyPlus Completed Successfully-- 166489 Warning; 0 Severe Errors; Elapsed Time=00hr 01min 40.37sec
