Program Version,EnergyPlus, Version 22.2.0-c249759bad, YMD=2023.09.01 20:12,
   ************* Beginning Zone Sizing Calculations
   ** Warning ** ProcessScheduleInput: Schedule:Constant="ALWAYS ON DISCRETE", Schedule Type Limits Name="ONOFF" not found -- will not be validated
   ** Warning ** Foundation:Kiva="KIVA FOUNDATION", no Interior Horizontal Insulation Material Name defined
   **   ~~~   ** Interior Horizontal Insulation Depth will not be used.
   ** Warning ** CheckUsedConstructions: There are 15 nominally unused constructions in input.
   **   ~~~   ** Each Unused construction is shown.
   ************* Construction=INTERIOR FLOOR
   ************* Construction=INTERIOR WINDOW
   ************* Construction=EXTERIOR DOOR
   ************* Construction=INTERIOR DOOR
   ************* Construction=GABLE CONSTRUCTION
   ************* Construction=CRAWL_FLOOR
   ************* Construction=INSULATED PIPE
   ************* Construction=PLAIN PIPE
   ************* Construction=TDD PIPE
   ************* Construction=TDD DOME
   ************* Construction=TDD DIFFUSER
   ************* Construction=CRAWL WALL
   ************* Construction=CEILING-FLOOR-LAYER
   ************* Construction=SLAB CONSTRUCTION W FULL R10 INSULATION
   ************* Construction=SLAB CONSTRUCTION W FULL R5 INSULATION
   ** Warning ** GetDXCoils: Coil:Heating:DX:SingleSpeed="DX_HEATING_COIL" curve values
   **   ~~~   ** ... Defrost Energy Input Ratio Function of Temperature Curve Name = DEFROSTEIR output is not equal to 1.0 (+ or - 10%) at rated conditions.
   **   ~~~   ** ... Curve output at rated conditions = 0.152
   ************* Beginning System Sizing Calculations
   ************* Beginning Plant Sizing Calculations
   ** Warning ** SizeDXCoil Coil:Cooling:DX:SingleSpeed DX_COOLING_COIL
   **   ~~~   ** ...Gross Rated Total Cooling Capacity [W] will be limited by the maximum rated volume flow per rated total capacity ratio.
   **   ~~~   ** ...DX coil volume flow rate ( m3/s ) = 0.392692
   **   ~~~   ** ...Requested capacity ( W ) = 6045.846
   **   ~~~   ** ...Requested flow/capacity ratio ( m3/s/W ) = 6.495E-005
   **   ~~~   ** ...Maximum flow/capacity ratio ( m3/s/W ) = 6.041E-005
   **   ~~~   ** ...Adjusted capacity ( W ) = 6500.447
   ** Warning ** Coil:WaterHeating:AirToWaterHeatPump:Wrapped "HEAT PUMP WATER HEATER EVAPORATOR": Rated air volume flow rate per watt of rated total water heating capacity is out of range
   **   ~~~   ** Min Rated Vol Flow Per Watt=[4.027E-005], Rated Vol Flow Per Watt=[1.510E-004], Max Rated Vol Flow Per Watt=[8.056E-005]. See Input-Output Reference Manual for valid range.
   ************* SizeFan: : Potential issue with equipment sizing for Fan:OnOff HEAT PUMP WATER HEATER FAN
   **   ~~~   ** User-Specified Maximum Flow Rate [m3/s] = 0.22653
   **   ~~~   ** differs from Design Size Maximum Flow Rate [m3/s] = 7.55250E-002
   **   ~~~   ** This may, or may not, indicate mismatched component sizes.
   **   ~~~   ** Verify that the value entered is intended and is consistent with other components.
   ** Warning ** Water heater = WATER HEATER TANK:  Recovery Efficiency and Energy Factor could not be calculated during the test for standard ratings
   **   ~~~   ** Setpoint was never recovered and/or heater never turned on
   ** Warning ** Check input. Pump nominal power or motor efficiency is set to 0, for pump=MAINS PRESSURE
   ** Warning ** Output:Meter: invalid Key Name="ELECTRIC_RANGE:INTERIOREQUIPMENT:ELECTRICITY" - not found.
   ** Warning ** Output:Meter: invalid Key Name="ELECTRIC_DRYER:INTERIOREQUIPMENT:ELECTRICITY" - not found.
   ** Warning ** Output:Meter: invalid Key Name="HEATRECOVERY:ELECTRICITY" - not found.
   ** Warning ** Output:Meter: invalid Key Name="HEATING:NATURALGAS" - not found.
   ** Warning ** Output:Meter: invalid Key Name="WATERSYSTEMS:NATURALGAS" - not found.
   ** Warning ** Output:Meter: invalid Key Name="PROPANE:FACILITY" - not found.
   ** Warning ** Output:Meter: invalid Key Name="HEATING:PROPANE" - not found.
   ************* Testing Individual Branch Integrity
   ************* All Branches passed integrity testing
   ************* Testing Individual Supply Air Path Integrity
   ************* All Supply Air Paths passed integrity testing
   ************* Testing Individual Return Air Path Integrity
   ************* All Return Air Paths passed integrity testing
   ************* No node connection errors were found.
   ************* Beginning Simulation
   ** Warning ** AirflowNetwork::Solver::validate_distribution: Heat pump water heater is simulated along with an AirflowNetwork but is not included in the AirflowNetwork.
   ** Warning ** CalcEquipmentFlowRates: "TOTAL HOT WATER LOAD" - Target water temperature is greater than the hot water temperature by (3.83 C)
   **   ~~~   **  Environment=EXTREME_WINTER, at Simulation time=01/20 07:00 - 07:15
   **   ~~~   ** ...target water temperature     = 53.33 C
   **   ~~~   ** ...hot water temperature        = 49.50 C
   **   ~~~   ** ...Target water temperature should be less than or equal to the hot water temperature. Verify temperature setpoints and schedules.
   ** Warning ** SimHVAC: Maximum iterations (20) exceeded for all HVAC loops, at ANNUAL, 01/04 21:30 - 21:45
   **   ~~~   ** The solution for one or more of the Air Loop HVAC systems did not appear to converge
   **   ~~~   ** Air System Named = CENTRAL SYSTEM did not converge for mass flow rate
   **   ~~~   ** Check values should be zero. Most Recent values listed first.
   **   ~~~   ** Demand-to-Supply interface mass flow rate check value iteration history trace: 6.861548E-002,6.861548E-002,6.861548E-002,6.861548E-002,6.861548E-002,6.861548E-002,6.861548E-002,6.861548E-002,6.861548E-002,6.861548E-002,
   **   ~~~   ** Supply-to-demand interface deck 1 mass flow rate check value iteration history trace: 6.861548E-002,6.861548E-002,6.861548E-002,6.861548E-002,6.861548E-002,6.861548E-002,6.861548E-002,6.861548E-002,6.861548E-002,6.861548E-002,
   **   ~~~   ** Air System Named = CENTRAL SYSTEM did not converge for energy
   **   ~~~   ** Check values should be zero. Most Recent values listed first.
   **   ~~~   ** Demand-to-Supply interface energy check value iteration history trace: 1358.503786,1358.503786,1358.503786,1358.503786,1358.503786,1358.503786,1358.503786,1358.503786,1358.503786,1358.503786,
   **   ~~~   ** Supply-to-demand interface deck 1 energy check value iteration history trace: 2334.182829,2334.182829,2334.182829,2334.182829,2334.182829,2334.182829,2334.182829,2334.182829,2334.182829,2334.182828,
   ** Warning ** SimHVAC: Maximum iterations (20) exceeded for all HVAC loops, at ANNUAL, 02/03 22:08 - 22:11
   **   ~~~   ** The solution for one or more of the Air Loop HVAC systems did not appear to converge
   **   ~~~   ** Air System Named = CENTRAL SYSTEM did not converge for mass flow rate
   **   ~~~   ** Check values should be zero. Most Recent values listed first.
   **   ~~~   ** Demand-to-Supply interface mass flow rate check value iteration history trace: 6.291424E-002,6.291424E-002,6.291424E-002,6.291424E-002,6.291424E-002,6.291424E-002,6.291424E-002,6.291424E-002,6.291424E-002,6.291424E-002,
   **   ~~~   ** Supply-to-demand interface deck 1 mass flow rate check value iteration history trace: 6.291424E-002,6.291424E-002,6.291424E-002,6.291424E-002,6.291424E-002,6.291424E-002,6.291424E-002,6.291424E-002,6.291424E-002,6.291424E-002,
   **   ~~~   ** Air System Named = CENTRAL SYSTEM did not converge for energy
   **   ~~~   ** Check values should be zero. Most Recent values listed first.
   **   ~~~   ** Demand-to-Supply interface energy check value iteration history trace: 1193.459936,1193.459936,1193.459936,1193.459936,1193.459936,1193.459936,1193.459936,1193.459936,1193.459936,1193.459936,
   **   ~~~   ** Supply-to-demand interface deck 1 energy check value iteration history trace: 2086.140365,2086.140365,2086.140364,2086.140364,2086.140364,2086.140364,2086.140364,2086.140364,2086.140364,2086.140364,
   ** Warning ** SimHVAC: Maximum iterations (20) exceeded for all HVAC loops, at ANNUAL, 03/08 16:50 - 16:55
   **   ~~~   ** The solution for one or more of the Air Loop HVAC systems did not appear to converge
   **   ~~~   ** Air System Named = CENTRAL SYSTEM did not converge for mass flow rate
   **   ~~~   ** Check values should be zero. Most Recent values listed first.
   **   ~~~   ** Demand-to-Supply interface mass flow rate check value iteration history trace: 9.948390E-002,9.948390E-002,9.948390E-002,9.948390E-002,9.948390E-002,9.948390E-002,9.948390E-002,9.948390E-002,9.948390E-002,9.948390E-002,
   **   ~~~   ** Supply-to-demand interface deck 1 mass flow rate check value iteration history trace: 9.948390E-002,9.948390E-002,9.948390E-002,9.948390E-002,9.948390E-002,9.948390E-002,9.948390E-002,9.948390E-002,9.948390E-002,9.948390E-002,
   **   ~~~   ** Air System Named = CENTRAL SYSTEM did not converge for energy
   **   ~~~   ** Check values should be zero. Most Recent values listed first.
   **   ~~~   ** Demand-to-Supply interface energy check value iteration history trace: 1968.578589,1968.578588,1968.578588,1968.578588,1968.578588,1968.578588,1968.578588,1968.578588,1968.578588,1968.578588,
   **   ~~~   ** Supply-to-demand interface deck 1 energy check value iteration history trace: 3009.125669,3009.125669,3009.125669,3009.125669,3009.125669,3009.125669,3009.125668,3009.125668,3009.125668,3009.125668,
   ** Warning ** SimHVAC: Maximum iterations (20) exceeded for all HVAC loops, at ANNUAL, 03/18 12:23 - 12:30
   **   ~~~   ** The solution for one or more of the Air Loop HVAC systems did not appear to converge
   **   ~~~   ** Air System Named = CENTRAL SYSTEM did not converge for mass flow rate
   **   ~~~   ** Check values should be zero. Most Recent values listed first.
   **   ~~~   ** Demand-to-Supply interface mass flow rate check value iteration history trace: 7.445247E-002,7.445247E-002,7.445247E-002,7.445247E-002,7.445247E-002,7.445247E-002,7.445247E-002,7.445247E-002,7.445247E-002,7.445247E-002,
   **   ~~~   ** Supply-to-demand interface deck 1 mass flow rate check value iteration history trace: 7.445247E-002,7.445247E-002,7.445247E-002,7.445247E-002,7.445247E-002,7.445247E-002,7.445247E-002,7.445247E-002,7.445247E-002,7.445247E-002,
   **   ~~~   ** Air System Named = CENTRAL SYSTEM did not converge for energy
   **   ~~~   ** Check values should be zero. Most Recent values listed first.
   **   ~~~   ** Demand-to-Supply interface energy check value iteration history trace: 1475.554933,1475.554933,1475.554933,1475.554933,1475.554933,1475.554933,1475.554932,1475.554932,1475.554932,1475.554932,
   **   ~~~   ** Supply-to-demand interface deck 1 energy check value iteration history trace: 2219.215908,2219.215908,2219.215908,2219.215908,2219.215907,2219.215907,2219.215907,2219.215907,2219.215907,2219.215907,
   ** Warning ** SimHVAC: Maximum iterations (20) exceeded for all HVAC loops, at ANNUAL, 03/25 11:30 - 11:45
   **   ~~~   ** The solution for one or more of the Air Loop HVAC systems did not appear to converge
   **   ~~~   ** Air System Named = CENTRAL SYSTEM did not converge for mass flow rate
   **   ~~~   ** Check values should be zero. Most Recent values listed first.
   **   ~~~   ** Demand-to-Supply interface mass flow rate check value iteration history trace: 8.134547E-002,8.134547E-002,8.134547E-002,8.134547E-002,8.134547E-002,8.134547E-002,8.134547E-002,8.134547E-002,8.134547E-002,8.134547E-002,
   **   ~~~   ** Supply-to-demand interface deck 1 mass flow rate check value iteration history trace: 8.134547E-002,8.134547E-002,8.134547E-002,8.134547E-002,8.134547E-002,8.134547E-002,8.134547E-002,8.134547E-002,8.134547E-002,8.134547E-002,
   **   ~~~   ** Air System Named = CENTRAL SYSTEM did not converge for energy
   **   ~~~   ** Check values should be zero. Most Recent values listed first.
   **   ~~~   ** Demand-to-Supply interface energy check value iteration history trace: 1608.185836,1608.185836,1608.185836,1608.185836,1608.185835,1608.185835,1608.185835,1608.185835,1608.185835,1608.185835,
   **   ~~~   ** Supply-to-demand interface deck 1 energy check value iteration history trace: 2505.677848,2505.677848,2505.677848,2505.677847,2505.677847,2505.677847,2505.677847,2505.677847,2505.677847,2505.677846,
   ** Warning ** SimHVAC: Maximum iterations (20) exceeded for all HVAC loops, at ANNUAL, 03/29 11:15 - 11:19
   **   ~~~   ** The solution for one or more of the Air Loop HVAC systems did not appear to converge
   **   ~~~   ** Air System Named = CENTRAL SYSTEM did not converge for mass flow rate
   **   ~~~   ** Check values should be zero. Most Recent values listed first.
   **   ~~~   ** Demand-to-Supply interface mass flow rate check value iteration history trace: 7.164099E-002,7.164099E-002,7.164099E-002,7.164099E-002,7.164099E-002,7.164099E-002,7.164099E-002,7.164099E-002,7.164099E-002,7.164099E-002,
   **   ~~~   ** Supply-to-demand interface deck 1 mass flow rate check value iteration history trace: 7.164099E-002,7.164099E-002,7.164099E-002,7.164099E-002,7.164099E-002,7.164099E-002,7.164099E-002,7.164099E-002,7.164099E-002,7.164099E-002,
   **   ~~~   ** Air System Named = CENTRAL SYSTEM did not converge for energy
   **   ~~~   ** Check values should be zero. Most Recent values listed first.
   **   ~~~   ** Demand-to-Supply interface energy check value iteration history trace: 1414.579545,1414.579545,1414.579545,1414.579545,1414.579545,1414.579545,1414.579545,1414.579545,1414.579544,1414.579544,
   **   ~~~   ** Supply-to-demand interface deck 1 energy check value iteration history trace: 2422.378592,2422.378591,2422.378591,2422.378591,2422.378591,2422.378591,2422.378591,2422.378591,2422.378591,2422.378591,
   ** Warning ** SimHVAC: Maximum iterations (20) exceeded for all HVAC loops, at ANNUAL, 04/03 13:00 - 13:08
   **   ~~~   ** The solution for one or more of the Air Loop HVAC systems did not appear to converge
   **   ~~~   ** Air System Named = CENTRAL SYSTEM did not converge for mass flow rate
   **   ~~~   ** Check values should be zero. Most Recent values listed first.
   **   ~~~   ** Demand-to-Supply interface mass flow rate check value iteration history trace: 3.861445E-002,3.861445E-002,3.861445E-002,3.861445E-002,3.861445E-002,3.861445E-002,3.861445E-002,3.861445E-002,3.861445E-002,3.861445E-002,
   **   ~~~   ** Supply-to-demand interface deck 1 mass flow rate check value iteration history trace: 3.861445E-002,3.861445E-002,3.861445E-002,3.861445E-002,3.861445E-002,3.861445E-002,3.861445E-002,3.861445E-002,3.861445E-002,3.861445E-002,
   **   ~~~   ** Air System Named = CENTRAL SYSTEM did not converge for energy
   **   ~~~   ** Check values should be zero. Most Recent values listed first.
   **   ~~~   ** Demand-to-Supply interface energy check value iteration history trace: 752.527679,752.527679,752.527679,752.527679,752.527679,752.527679,752.527679,752.527679,752.527679,752.527679,
   **   ~~~   ** Supply-to-demand interface deck 1 energy check value iteration history trace: 1381.532409,1381.532409,1381.532409,1381.532409,1381.532409,1381.532409,1381.532409,1381.532409,1381.532408,1381.532408,
   ** Warning ** SimHVAC: Maximum iterations (20) exceeded for all HVAC loops, at ANNUAL, 04/14 09:15 - 09:30
   **   ~~~   ** The solution for one or more of the Air Loop HVAC systems did not appear to converge
   **   ~~~   ** Air System Named = CENTRAL SYSTEM did not converge for mass flow rate
   **   ~~~   ** Check values should be zero. Most Recent values listed first.
   **   ~~~   ** Demand-to-Supply interface mass flow rate check value iteration history trace: 8.981912E-002,8.981912E-002,8.981912E-002,8.981912E-002,8.981912E-002,8.981912E-002,8.981912E-002,8.981912E-002,8.981912E-002,8.981912E-002,
   **   ~~~   ** Supply-to-demand interface deck 1 mass flow rate check value iteration history trace: 8.981912E-002,8.981912E-002,8.981912E-002,8.981912E-002,8.981912E-002,8.981912E-002,8.981912E-002,8.981912E-002,8.981912E-002,8.981912E-002,
   **   ~~~   ** Air System Named = CENTRAL SYSTEM did not converge for energy
   **   ~~~   ** Check values should be zero. Most Recent values listed first.
   **   ~~~   ** Demand-to-Supply interface energy check value iteration history trace: 1779.931678,1779.931678,1779.931677,1779.931677,1779.931677,1779.931677,1779.931677,1779.931677,1779.931677,1779.931677,
   **   ~~~   ** Supply-to-demand interface deck 1 energy check value iteration history trace: 2988.759979,2988.759979,2988.759979,2988.759979,2988.759979,2988.759979,2988.759978,2988.759978,2988.759978,2988.759978,
   ** Warning ** SimHVAC: Maximum iterations (20) exceeded for all HVAC loops, at ANNUAL, 04/14 09:15 - 09:17
   **   ~~~   ** The solution for one or more of the Air Loop HVAC systems did not appear to converge
   **   ~~~   ** Air System Named = CENTRAL SYSTEM did not converge for mass flow rate
   **   ~~~   ** Check values should be zero. Most Recent values listed first.
   **   ~~~   ** Demand-to-Supply interface mass flow rate check value iteration history trace: 9.012153E-002,9.012153E-002,9.012153E-002,9.012153E-002,9.012153E-002,9.012153E-002,9.012153E-002,9.012153E-002,9.012153E-002,9.012153E-002,
   **   ~~~   ** Supply-to-demand interface deck 1 mass flow rate check value iteration history trace: 9.012153E-002,9.012153E-002,9.012153E-002,9.012153E-002,9.012153E-002,9.012153E-002,9.012153E-002,9.012153E-002,9.012153E-002,9.012153E-002,
   **   ~~~   ** Air System Named = CENTRAL SYSTEM did not converge for energy
   **   ~~~   ** Check values should be zero. Most Recent values listed first.
   **   ~~~   ** Demand-to-Supply interface energy check value iteration history trace: 1785.955728,1785.955727,1785.955727,1785.955727,1785.955727,1785.955727,1785.955727,1785.955727,1785.955727,1785.955727,
   **   ~~~   ** Supply-to-demand interface deck 1 energy check value iteration history trace: 2998.871423,2998.871423,2998.871423,2998.871422,2998.871422,2998.871422,2998.871422,2998.871422,2998.871422,2998.871421,
   ** Warning ** SimHVAC: Maximum iterations (20) exceeded for all HVAC loops, at ANNUAL, 04/23 23:15 - 23:30
   **   ~~~   ** The solution for one or more of the Air Loop HVAC systems did not appear to converge
   **   ~~~   ** Air System Named = CENTRAL SYSTEM did not converge for mass flow rate
   **   ~~~   ** Check values should be zero. Most Recent values listed first.
   **   ~~~   ** Demand-to-Supply interface mass flow rate check value iteration history trace: 6.485310E-002,6.485310E-002,6.485310E-002,6.485310E-002,6.485310E-002,6.485310E-002,6.485310E-002,6.485310E-002,6.485310E-002,6.485310E-002,
   **   ~~~   ** Supply-to-demand interface deck 1 mass flow rate check value iteration history trace: 6.485310E-002,6.485310E-002,6.485310E-002,6.485310E-002,6.485310E-002,6.485310E-002,6.485310E-002,6.485310E-002,6.485310E-002,6.485310E-002,
   **   ~~~   ** Air System Named = CENTRAL SYSTEM did not converge for energy
   **   ~~~   ** Check values should be zero. Most Recent values listed first.
   **   ~~~   ** Demand-to-Supply interface energy check value iteration history trace: 1210.897157,1210.897157,1210.897157,1210.897156,1210.897156,1210.897156,1210.897156,1210.897156,1210.897156,1210.897156,
   **   ~~~   ** Supply-to-demand interface deck 1 energy check value iteration history trace: 2103.498411,2103.498411,2103.498411,2103.498411,2103.498411,2103.498411,2103.498411,2103.498411,2103.498410,2103.498410,
   ** Warning ** SimHVAC: Maximum iterations (20) exceeded for all HVAC loops, at ANNUAL, 05/08 03:50 - 03:55
   **   ~~~   ** The solution for one or more of the Air Loop HVAC systems did not appear to converge
   **   ~~~   ** Air System Named = CENTRAL SYSTEM did not converge for mass flow rate
   **   ~~~   ** Check values should be zero. Most Recent values listed first.
   **   ~~~   ** Demand-to-Supply interface mass flow rate check value iteration history trace: 7.834646E-002,7.834646E-002,7.834646E-002,7.834646E-002,7.834646E-002,7.834646E-002,7.834646E-002,7.834646E-002,7.834646E-002,7.834646E-002,
   **   ~~~   ** Supply-to-demand interface deck 1 mass flow rate check value iteration history trace: 7.834646E-002,7.834646E-002,7.834646E-002,7.834646E-002,7.834646E-002,7.834646E-002,7.834646E-002,7.834646E-002,7.834646E-002,7.834646E-002,
   **   ~~~   ** Air System Named = CENTRAL SYSTEM did not converge for energy
   **   ~~~   ** Check values should be zero. Most Recent values listed first.
   **   ~~~   ** Demand-to-Supply interface energy check value iteration history trace: 1460.153238,1460.153238,1460.153238,1460.153238,1460.153238,1460.153238,1460.153238,1460.153238,1460.153238,1460.153238,
   **   ~~~   ** Supply-to-demand interface deck 1 energy check value iteration history trace: 2246.788671,2246.788671,2246.788670,2246.788670,2246.788670,2246.788670,2246.788670,2246.788670,2246.788670,2246.788670,
   ** Warning ** SimHVAC: Maximum iterations (20) exceeded for all HVAC loops, at ANNUAL, 09/15 11:55 - 11:57
   **   ~~~   ** The solution for one or more of the Air Loop HVAC systems did not appear to converge
   **   ~~~   ** Air System Named = CENTRAL SYSTEM did not converge for mass flow rate
   **   ~~~   ** Check values should be zero. Most Recent values listed first.
   **   ~~~   ** Demand-to-Supply interface mass flow rate check value iteration history trace: 4.124348E-002,4.124348E-002,4.124348E-002,4.124348E-002,4.124348E-002,4.124348E-002,4.124348E-002,4.124348E-002,4.124348E-002,4.124348E-002,
   **   ~~~   ** Supply-to-demand interface deck 1 mass flow rate check value iteration history trace: 4.124348E-002,4.124348E-002,4.124348E-002,4.124348E-002,4.124348E-002,4.124348E-002,4.124348E-002,4.124348E-002,4.124348E-002,4.124348E-002,
   **   ~~~   ** Air System Named = CENTRAL SYSTEM did not converge for energy
   **   ~~~   ** Check values should be zero. Most Recent values listed first.
   **   ~~~   ** Demand-to-Supply interface energy check value iteration history trace: 967.945158,967.945158,967.945158,967.945158,967.945158,967.945158,967.945158,967.945158,967.945158,967.945158,
   **   ~~~   ** Supply-to-demand interface deck 1 energy check value iteration history trace: 449.972232,449.972232,449.972232,449.972232,449.972232,449.972233,449.972233,449.972233,449.972233,449.972233,
   ** Warning ** SimHVAC: Maximum iterations (20) exceeded for all HVAC loops, at ANNUAL, 09/17 10:39 - 10:42
   **   ~~~   ** The solution for one or more of the Air Loop HVAC systems did not appear to converge
   **   ~~~   ** Air System Named = CENTRAL SYSTEM did not converge for mass flow rate
   **   ~~~   ** Check values should be zero. Most Recent values listed first.
   **   ~~~   ** Demand-to-Supply interface mass flow rate check value iteration history trace: 0.189590,0.189590,0.189590,0.189590,0.189590,0.189590,0.189590,0.189590,0.189590,0.189590,
   **   ~~~   ** Supply-to-demand interface deck 1 mass flow rate check value iteration history trace: 0.189590,0.189590,0.189590,0.189590,0.189590,0.189590,0.189590,0.189590,0.189590,0.189590,
   **   ~~~   ** Air System Named = CENTRAL SYSTEM did not converge for energy
   **   ~~~   ** Check values should be zero. Most Recent values listed first.
   **   ~~~   ** Demand-to-Supply interface energy check value iteration history trace: 4505.738875,4505.738875,4505.738876,4505.738876,4505.738876,4505.738877,4505.738877,4505.738877,4505.738877,4505.738878,
   **   ~~~   ** Supply-to-demand interface deck 1 energy check value iteration history trace: 2237.214642,2237.214642,2237.214642,2237.214642,2237.214642,2237.214642,2237.214642,2237.214643,2237.214643,2237.214643,
   ** Warning ** SimHVAC: Maximum iterations (20) exceeded for all HVAC loops, at ANNUAL, 09/25 09:54 - 09:56
   **   ~~~   ** The solution for one or more of the Air Loop HVAC systems did not appear to converge
   **   ~~~   ** Air System Named = CENTRAL SYSTEM did not converge for mass flow rate
   **   ~~~   ** Check values should be zero. Most Recent values listed first.
   **   ~~~   ** Demand-to-Supply interface mass flow rate check value iteration history trace: 0.208630,0.208630,0.208630,0.208630,0.208630,0.208630,0.208630,0.208630,0.208630,0.208630,
   **   ~~~   ** Supply-to-demand interface deck 1 mass flow rate check value iteration history trace: 0.208630,0.208630,0.208630,0.208630,0.208630,0.208630,0.208630,0.208630,0.208630,0.208630,
   **   ~~~   ** Air System Named = CENTRAL SYSTEM did not converge for energy
   **   ~~~   ** Check values should be zero. Most Recent values listed first.
   **   ~~~   ** Demand-to-Supply interface energy check value iteration history trace: 4940.961913,4940.961914,4940.961915,4940.961915,4940.961916,4940.961917,4940.961918,4940.961919,4940.961920,4940.961920,
   **   ~~~   ** Supply-to-demand interface deck 1 energy check value iteration history trace: 2555.412534,2555.412535,2555.412535,2555.412536,2555.412536,2555.412537,2555.412537,2555.412537,2555.412538,2555.412538,
   ************* Simulation Error Summary *************
   ** Warning ** The following Report Variables were requested but not generated -- check.rdd file
   **   ~~~   ** Either the IDF did not contain these elements, the variable name is misspelled,
   **   ~~~   ** or the requested variable is an advanced output which requires Output : Diagnostics, DisplayAdvancedReportVariables;
   ************* Key=*, VarName=BASEBOARD TOTAL HEATING ENERGY, Frequency=
   ************* Key=*, VarName=WATER HEATER NATURALGAS ENERGY, Frequency=
   ************* Key=*, VarName=COOLING COIL TOTAL HEATING ENERGY, Frequency=
   ************* There are 34 unused schedules in input.
   ************* There are 388 unused week schedules in input.
   ************* There are 396 unused day schedules in input.
   ************* Use Output:Diagnostics,DisplayUnusedSchedules; to see them.
   *************
   ************* ===== Recurring Error Summary =====
   ************* The following recurring error messages occurred.
   *************
   *************  ** Warning ** "TOTAL HOT WATER LOAD" - Target water temperature should be less than or equal to the hot water temperature error continues...
   *************  **   ~~~   **   This error occurred 139771 total times;
   *************  **   ~~~   **   during Warmup 0 times;
   *************  **   ~~~   **   during Sizing 0 times.
   *************  **   ~~~   **   Max=16.419571  Min=5.303157E-003
   *************
   *************  ** Warning ** SimHVAC: Exceeding Maximum iterations for all HVAC loops, during ANNUAL continues
   *************  **   ~~~   **   This error occurred 10 total times;
   *************  **   ~~~   **   during Warmup 0 times;
   *************  **   ~~~   **   during Sizing 0 times.
   *************
   *************
   ************* ===== Final Error Summary =====
   ************* The following error categories occurred.  Consider correcting or noting.
   ************* Nominally Unused Constructions
   ************* ..The nominally unused constructions warning is provided to alert you to potential conditions that can cause
   ************* ..extra time during simulation. Each construction is calculated by the algorithm indicated in the HeatBalanceAlgorithm
   ************* ..object. You may remove the constructions indicated (when you use the DisplayExtraWarnings option).
   *************
   ************* EnergyPlus Warmup Error Summary. During Warmup: 1 Warning; 0 Severe Errors.
   ************* EnergyPlus Sizing Error Summary. During Sizing: 4 Warning; 0 Severe Errors.
   ************* EnergyPlus Completed Successfully-- 139813 Warning; 0 Severe Errors; Elapsed Time=00hr 01min 33.03sec
