Program Version,EnergyPlus, Version 22.2.0-c249759bad, YMD=2023.09.01 20:01,
   ************* Beginning Zone Sizing Calculations
   ** Warning ** ProcessScheduleInput: Schedule:Constant="ALWAYS ON DISCRETE", Schedule Type Limits Name="ONOFF" not found -- will not be validated
   ** Warning ** Foundation:Kiva="KIVA FOUNDATION", no Interior Horizontal Insulation Material Name defined
   **   ~~~   ** Interior Horizontal Insulation Depth will not be used.
   ** Warning ** CheckUsedConstructions: There are 15 nominally unused constructions in input.
   **   ~~~   ** Each Unused construction is shown.
   ************* Construction=INTERIOR FLOOR
   ************* Construction=INTERIOR WINDOW
   ************* Construction=EXTERIOR DOOR
   ************* Construction=INTERIOR DOOR
   ************* Construction=GABLE CONSTRUCTION
   ************* Construction=CRAWL_FLOOR
   ************* Construction=INSULATED PIPE
   ************* Construction=PLAIN PIPE
   ************* Construction=TDD PIPE
   ************* Construction=TDD DOME
   ************* Construction=TDD DIFFUSER
   ************* Construction=CRAWL WALL
   ************* Construction=CEILING-FLOOR-LAYER
   ************* Construction=SLAB CONSTRUCTION W FULL R10 INSULATION
   ************* Construction=SLAB CONSTRUCTION W FULL R5 INSULATION
   ** Warning ** GetDXCoils: Coil:Heating:DX:SingleSpeed="DX_HEATING_COIL" curve values
   **   ~~~   ** ... Defrost Energy Input Ratio Function of Temperature Curve Name = DEFROSTEIR output is not equal to 1.0 (+ or - 10%) at rated conditions.
   **   ~~~   ** ... Curve output at rated conditions = 0.152
   ************* Beginning System Sizing Calculations
   ************* Beginning Plant Sizing Calculations
   ** Warning ** SizeDXCoil Coil:Cooling:DX:SingleSpeed DX_COOLING_COIL
   **   ~~~   ** ...Gross Rated Total Cooling Capacity [W] will be limited by the maximum rated volume flow per rated total capacity ratio.
   **   ~~~   ** ...DX coil volume flow rate ( m3/s ) = 0.534266
   **   ~~~   ** ...Requested capacity ( W ) = 7800.555
   **   ~~~   ** ...Requested flow/capacity ratio ( m3/s/W ) = 6.849E-005
   **   ~~~   ** ...Maximum flow/capacity ratio ( m3/s/W ) = 6.041E-005
   **   ~~~   ** ...Adjusted capacity ( W ) = 8844.000
   ** Warning ** Coil:WaterHeating:AirToWaterHeatPump:Wrapped "HEAT PUMP WATER HEATER EVAPORATOR": Rated air volume flow rate per watt of rated total water heating capacity is out of range
   **   ~~~   ** Min Rated Vol Flow Per Watt=[4.027E-005], Rated Vol Flow Per Watt=[1.510E-004], Max Rated Vol Flow Per Watt=[8.056E-005]. See Input-Output Reference Manual for valid range.
   ************* SizeFan: : Potential issue with equipment sizing for Fan:OnOff HEAT PUMP WATER HEATER FAN
   **   ~~~   ** User-Specified Maximum Flow Rate [m3/s] = 0.22653
   **   ~~~   ** differs from Design Size Maximum Flow Rate [m3/s] = 7.55250E-002
   **   ~~~   ** This may, or may not, indicate mismatched component sizes.
   **   ~~~   ** Verify that the value entered is intended and is consistent with other components.
   ** Warning ** Water heater = WATER HEATER TANK:  Recovery Efficiency and Energy Factor could not be calculated during the test for standard ratings
   **   ~~~   ** Setpoint was never recovered and/or heater never turned on
   ** Warning ** Check input. Pump nominal power or motor efficiency is set to 0, for pump=MAINS PRESSURE
   ** Warning ** Output:Meter: invalid Key Name="ELECTRIC_RANGE:INTERIOREQUIPMENT:ELECTRICITY" - not found.
   ** Warning ** Output:Meter: invalid Key Name="ELECTRIC_DRYER:INTERIOREQUIPMENT:ELECTRICITY" - not found.
   ** Warning ** Output:Meter: invalid Key Name="HEATRECOVERY:ELECTRICITY" - not found.
   ** Warning ** Output:Meter: invalid Key Name="HEATING:NATURALGAS" - not found.
   ** Warning ** Output:Meter: invalid Key Name="WATERSYSTEMS:NATURALGAS" - not found.
   ** Warning ** Output:Meter: invalid Key Name="PROPANE:FACILITY" - not found.
   ** Warning ** Output:Meter: invalid Key Name="HEATING:PROPANE" - not found.
   ************* Testing Individual Branch Integrity
   ************* All Branches passed integrity testing
   ************* Testing Individual Supply Air Path Integrity
   ************* All Supply Air Paths passed integrity testing
   ************* Testing Individual Return Air Path Integrity
   ************* All Return Air Paths passed integrity testing
   ************* No node connection errors were found.
   ************* Beginning Simulation
   ** Warning ** AirflowNetwork::Solver::validate_distribution: Heat pump water heater is simulated along with an AirflowNetwork but is not included in the AirflowNetwork.
   ** Warning ** CalcEquipmentFlowRates: "TOTAL HOT WATER LOAD" - Target water temperature is greater than the hot water temperature by (4.52 C)
   **   ~~~   **  Environment=EXTREME_WINTER, at Simulation time=12/15 07:00 - 07:15
   **   ~~~   ** ...target water temperature     = 53.33 C
   **   ~~~   ** ...hot water temperature        = 48.81 C
   **   ~~~   ** ...Target water temperature should be less than or equal to the hot water temperature. Verify temperature setpoints and schedules.
   ** Warning ** SimHVAC: Maximum iterations (20) exceeded for all HVAC loops, at ANNUAL, 01/19 12:38 - 12:45
   **   ~~~   ** The solution for one or more of the Air Loop HVAC systems did not appear to converge
   **   ~~~   ** Air System Named = CENTRAL SYSTEM did not converge for mass flow rate
   **   ~~~   ** Check values should be zero. Most Recent values listed first.
   **   ~~~   ** Demand-to-Supply interface mass flow rate check value iteration history trace: 6.085440E-002,6.085440E-002,6.085440E-002,6.085440E-002,6.085440E-002,6.085440E-002,6.085440E-002,6.085440E-002,6.085440E-002,6.085440E-002,
   **   ~~~   ** Supply-to-demand interface deck 1 mass flow rate check value iteration history trace: 6.085440E-002,6.085440E-002,6.085440E-002,6.085440E-002,6.085440E-002,6.085440E-002,6.085440E-002,6.085440E-002,6.085440E-002,6.085440E-002,
   **   ~~~   ** Air System Named = CENTRAL SYSTEM did not converge for energy
   **   ~~~   ** Check values should be zero. Most Recent values listed first.
   **   ~~~   ** Demand-to-Supply interface energy check value iteration history trace: 1200.936663,1200.936663,1200.936663,1200.936663,1200.936663,1200.936663,1200.936663,1200.936663,1200.936663,1200.936663,
   **   ~~~   ** Supply-to-demand interface deck 1 energy check value iteration history trace: 2100.766549,2100.766549,2100.766548,2100.766548,2100.766548,2100.766548,2100.766548,2100.766548,2100.766548,2100.766548,
   ** Warning ** SimHVAC: Maximum iterations (20) exceeded for all HVAC loops, at ANNUAL, 01/31 11:15 - 11:19
   **   ~~~   ** The solution for one or more of the Air Loop HVAC systems did not appear to converge
   **   ~~~   ** Air System Named = CENTRAL SYSTEM did not converge for mass flow rate
   **   ~~~   ** Check values should be zero. Most Recent values listed first.
   **   ~~~   ** Demand-to-Supply interface mass flow rate check value iteration history trace: 9.471076E-002,9.471076E-002,9.471076E-002,9.471076E-002,9.471076E-002,9.471076E-002,9.471076E-002,9.471076E-002,9.471076E-002,9.471076E-002,
   **   ~~~   ** Supply-to-demand interface deck 1 mass flow rate check value iteration history trace: 9.471076E-002,9.471076E-002,9.471076E-002,9.471076E-002,9.471076E-002,9.471076E-002,9.471076E-002,9.471076E-002,9.471076E-002,9.471076E-002,
   **   ~~~   ** Air System Named = CENTRAL SYSTEM did not converge for energy
   **   ~~~   ** Check values should be zero. Most Recent values listed first.
   **   ~~~   ** Demand-to-Supply interface energy check value iteration history trace: 1876.784388,1876.784388,1876.784388,1876.784388,1876.784388,1876.784387,1876.784387,1876.784387,1876.784387,1876.784387,
   **   ~~~   ** Supply-to-demand interface deck 1 energy check value iteration history trace: 2969.287626,2969.287625,2969.287625,2969.287625,2969.287625,2969.287625,2969.287624,2969.287624,2969.287624,2969.287624,
   ** Warning ** SimHVAC: Maximum iterations (20) exceeded for all HVAC loops, at ANNUAL, 02/03 20:30 - 20:45
   **   ~~~   ** The solution for one or more of the Air Loop HVAC systems did not appear to converge
   **   ~~~   ** Air System Named = CENTRAL SYSTEM did not converge for mass flow rate
   **   ~~~   ** Check values should be zero. Most Recent values listed first.
   **   ~~~   ** Demand-to-Supply interface mass flow rate check value iteration history trace: 9.698735E-002,9.698735E-002,9.698735E-002,9.698735E-002,9.698735E-002,9.698735E-002,9.698735E-002,9.698735E-002,9.698735E-002,9.698735E-002,
   **   ~~~   ** Supply-to-demand interface deck 1 mass flow rate check value iteration history trace: 9.698735E-002,9.698735E-002,9.698735E-002,9.698735E-002,9.698735E-002,9.698735E-002,9.698735E-002,9.698735E-002,9.698735E-002,9.698735E-002,
   **   ~~~   ** Air System Named = CENTRAL SYSTEM did not converge for energy
   **   ~~~   ** Check values should be zero. Most Recent values listed first.
   **   ~~~   ** Demand-to-Supply interface energy check value iteration history trace: 1887.062641,1887.062641,1887.062640,1887.062640,1887.062640,1887.062640,1887.062640,1887.062640,1887.062640,1887.062640,
   **   ~~~   ** Supply-to-demand interface deck 1 energy check value iteration history trace: 2910.232712,2910.232711,2910.232711,2910.232711,2910.232711,2910.232711,2910.232711,2910.232710,2910.232710,2910.232710,
   ** Warning ** SimHVAC: Maximum iterations (20) exceeded for all HVAC loops, at ANNUAL, 02/03 21:08 - 21:15
   **   ~~~   ** The solution for one or more of the Air Loop HVAC systems did not appear to converge
   **   ~~~   ** Air System Named = CENTRAL SYSTEM did not converge for mass flow rate
   **   ~~~   ** Check values should be zero. Most Recent values listed first.
   **   ~~~   ** Demand-to-Supply interface mass flow rate check value iteration history trace: 9.181164E-002,9.181164E-002,9.181164E-002,9.181164E-002,9.181164E-002,9.181164E-002,9.181164E-002,9.181164E-002,9.181164E-002,9.181164E-002,
   **   ~~~   ** Supply-to-demand interface deck 1 mass flow rate check value iteration history trace: 9.181164E-002,9.181164E-002,9.181164E-002,9.181164E-002,9.181164E-002,9.181164E-002,9.181164E-002,9.181164E-002,9.181164E-002,9.181164E-002,
   **   ~~~   ** Air System Named = CENTRAL SYSTEM did not converge for energy
   **   ~~~   ** Check values should be zero. Most Recent values listed first.
   **   ~~~   ** Demand-to-Supply interface energy check value iteration history trace: 1815.642317,1815.642316,1815.642316,1815.642316,1815.642316,1815.642316,1815.642316,1815.642316,1815.642316,1815.642315,
   **   ~~~   ** Supply-to-demand interface deck 1 energy check value iteration history trace: 2789.815377,2789.815377,2789.815377,2789.815376,2789.815376,2789.815376,2789.815376,2789.815376,2789.815375,2789.815375,
   ** Warning ** SimHVAC: Maximum iterations (20) exceeded for all HVAC loops, at ANNUAL, 02/07 12:15 - 12:30
   **   ~~~   ** The solution for one or more of the Air Loop HVAC systems did not appear to converge
   **   ~~~   ** Air System Named = CENTRAL SYSTEM did not converge for mass flow rate
   **   ~~~   ** Check values should be zero. Most Recent values listed first.
   **   ~~~   ** Demand-to-Supply interface mass flow rate check value iteration history trace: 6.581240E-002,6.581240E-002,6.581240E-002,6.581240E-002,6.581240E-002,6.581240E-002,6.581240E-002,6.581240E-002,6.581240E-002,6.581240E-002,
   **   ~~~   ** Supply-to-demand interface deck 1 mass flow rate check value iteration history trace: 6.581240E-002,6.581240E-002,6.581240E-002,6.581240E-002,6.581240E-002,6.581240E-002,6.581240E-002,6.581240E-002,6.581240E-002,6.581240E-002,
   **   ~~~   ** Air System Named = CENTRAL SYSTEM did not converge for energy
   **   ~~~   ** Check values should be zero. Most Recent values listed first.
   **   ~~~   ** Demand-to-Supply interface energy check value iteration history trace: 1284.422573,1284.422573,1284.422573,1284.422573,1284.422573,1284.422573,1284.422573,1284.422572,1284.422572,1284.422572,
   **   ~~~   ** Supply-to-demand interface deck 1 energy check value iteration history trace: 2309.781631,2309.781631,2309.781630,2309.781630,2309.781630,2309.781630,2309.781630,2309.781630,2309.781630,2309.781630,
   ** Warning ** SimHVAC: Maximum iterations (20) exceeded for all HVAC loops, at ANNUAL, 02/11 20:30 - 20:38
   **   ~~~   ** The solution for one or more of the Air Loop HVAC systems did not appear to converge
   **   ~~~   ** Air System Named = CENTRAL SYSTEM did not converge for mass flow rate
   **   ~~~   ** Check values should be zero. Most Recent values listed first.
   **   ~~~   ** Demand-to-Supply interface mass flow rate check value iteration history trace: 6.579749E-002,6.579749E-002,6.579749E-002,6.579749E-002,6.579749E-002,6.579749E-002,6.579749E-002,6.579749E-002,6.579749E-002,6.579749E-002,
   **   ~~~   ** Supply-to-demand interface deck 1 mass flow rate check value iteration history trace: 6.579749E-002,6.579749E-002,6.579749E-002,6.579749E-002,6.579749E-002,6.579749E-002,6.579749E-002,6.579749E-002,6.579749E-002,6.579749E-002,
   **   ~~~   ** Air System Named = CENTRAL SYSTEM did not converge for energy
   **   ~~~   ** Check values should be zero. Most Recent values listed first.
   **   ~~~   ** Demand-to-Supply interface energy check value iteration history trace: 1301.926111,1301.926111,1301.926111,1301.926111,1301.926111,1301.926111,1301.926111,1301.926111,1301.926111,1301.926111,
   **   ~~~   ** Supply-to-demand interface deck 1 energy check value iteration history trace: 2262.250959,2262.250959,2262.250959,2262.250959,2262.250959,2262.250958,2262.250958,2262.250958,2262.250958,2262.250958,
   ** Warning ** SimHVAC: Maximum iterations (20) exceeded for all HVAC loops, at ANNUAL, 02/16 21:53 - 22:00
   **   ~~~   ** The solution for one or more of the Air Loop HVAC systems did not appear to converge
   **   ~~~   ** Air System Named = CENTRAL SYSTEM did not converge for mass flow rate
   **   ~~~   ** Check values should be zero. Most Recent values listed first.
   **   ~~~   ** Demand-to-Supply interface mass flow rate check value iteration history trace: 8.409163E-002,8.409163E-002,8.409163E-002,8.409163E-002,8.409163E-002,8.409163E-002,8.409163E-002,8.409163E-002,8.409163E-002,8.409163E-002,
   **   ~~~   ** Supply-to-demand interface deck 1 mass flow rate check value iteration history trace: 8.409163E-002,8.409163E-002,8.409163E-002,8.409163E-002,8.409163E-002,8.409163E-002,8.409163E-002,8.409163E-002,8.409163E-002,8.409163E-002,
   **   ~~~   ** Air System Named = CENTRAL SYSTEM did not converge for energy
   **   ~~~   ** Check values should be zero. Most Recent values listed first.
   **   ~~~   ** Demand-to-Supply interface energy check value iteration history trace: 1664.779689,1664.779689,1664.779689,1664.779689,1664.779689,1664.779689,1664.779688,1664.779688,1664.779688,1664.779688,
   **   ~~~   ** Supply-to-demand interface deck 1 energy check value iteration history trace: 2693.050530,2693.050530,2693.050530,2693.050529,2693.050529,2693.050529,2693.050529,2693.050529,2693.050529,2693.050529,
   ** Warning ** SimHVAC: Maximum iterations (20) exceeded for all HVAC loops, at ANNUAL, 02/27 12:30 - 12:33
   **   ~~~   ** The solution for one or more of the Air Loop HVAC systems did not appear to converge
   **   ~~~   ** Air System Named = CENTRAL SYSTEM did not converge for mass flow rate
   **   ~~~   ** Check values should be zero. Most Recent values listed first.
   **   ~~~   ** Demand-to-Supply interface mass flow rate check value iteration history trace: 5.780902E-002,5.780902E-002,5.780902E-002,5.780902E-002,5.780902E-002,5.780902E-002,5.780902E-002,5.780902E-002,5.780902E-002,5.780902E-002,
   **   ~~~   ** Supply-to-demand interface deck 1 mass flow rate check value iteration history trace: 5.780902E-002,5.780902E-002,5.780902E-002,5.780902E-002,5.780902E-002,5.780902E-002,5.780902E-002,5.780902E-002,5.780902E-002,5.780902E-002,
   **   ~~~   ** Air System Named = CENTRAL SYSTEM did not converge for energy
   **   ~~~   ** Check values should be zero. Most Recent values listed first.
   **   ~~~   ** Demand-to-Supply interface energy check value iteration history trace: 1145.599671,1145.599671,1145.599671,1145.599671,1145.599671,1145.599671,1145.599671,1145.599671,1145.599671,1145.599671,
   **   ~~~   ** Supply-to-demand interface deck 1 energy check value iteration history trace: 1987.212913,1987.212913,1987.212913,1987.212912,1987.212912,1987.212912,1987.212912,1987.212912,1987.212912,1987.212912,
   ** Warning ** SimHVAC: Maximum iterations (20) exceeded for all HVAC loops, at ANNUAL, 03/04 09:00 - 09:15
   **   ~~~   ** The solution for one or more of the Air Loop HVAC systems did not appear to converge
   **   ~~~   ** Air System Named = CENTRAL SYSTEM did not converge for mass flow rate
   **   ~~~   ** Check values should be zero. Most Recent values listed first.
   **   ~~~   ** Demand-to-Supply interface mass flow rate check value iteration history trace: 6.286031E-002,6.286031E-002,6.286031E-002,6.286031E-002,6.286031E-002,6.286031E-002,6.286031E-002,6.286031E-002,6.286031E-002,6.286031E-002,
   **   ~~~   ** Supply-to-demand interface deck 1 mass flow rate check value iteration history trace: 6.286031E-002,6.286031E-002,6.286031E-002,6.286031E-002,6.286031E-002,6.286031E-002,6.286031E-002,6.286031E-002,6.286031E-002,6.286031E-002,
   **   ~~~   ** Air System Named = CENTRAL SYSTEM did not converge for energy
   **   ~~~   ** Check values should be zero. Most Recent values listed first.
   **   ~~~   ** Demand-to-Supply interface energy check value iteration history trace: 1245.688773,1245.688772,1245.688772,1245.688772,1245.688772,1245.688772,1245.688772,1245.688772,1245.688772,1245.688772,
   **   ~~~   ** Supply-to-demand interface deck 1 energy check value iteration history trace: 2224.973498,2224.973498,2224.973498,2224.973498,2224.973498,2224.973498,2224.973498,2224.973498,2224.973498,2224.973498,
   ** Warning ** SimHVAC: Maximum iterations (20) exceeded for all HVAC loops, at ANNUAL, 03/10 21:15 - 21:30
   **   ~~~   ** The solution for one or more of the Air Loop HVAC systems did not appear to converge
   **   ~~~   ** Air System Named = CENTRAL SYSTEM did not converge for mass flow rate
   **   ~~~   ** Check values should be zero. Most Recent values listed first.
   **   ~~~   ** Demand-to-Supply interface mass flow rate check value iteration history trace: 8.210577E-002,8.210577E-002,8.210577E-002,8.210577E-002,8.210577E-002,8.210577E-002,8.210577E-002,8.210577E-002,8.210577E-002,8.210577E-002,
   **   ~~~   ** Supply-to-demand interface deck 1 mass flow rate check value iteration history trace: 8.210577E-002,8.210577E-002,8.210577E-002,8.210577E-002,8.210577E-002,8.210577E-002,8.210577E-002,8.210577E-002,8.210577E-002,8.210577E-002,
   **   ~~~   ** Air System Named = CENTRAL SYSTEM did not converge for energy
   **   ~~~   ** Check values should be zero. Most Recent values listed first.
   **   ~~~   ** Demand-to-Supply interface energy check value iteration history trace: 1622.925481,1622.925481,1622.925481,1622.925481,1622.925481,1622.925481,1622.925481,1622.925481,1622.925480,1622.925480,
   **   ~~~   ** Supply-to-demand interface deck 1 energy check value iteration history trace: 2516.359901,2516.359901,2516.359901,2516.359900,2516.359900,2516.359900,2516.359900,2516.359900,2516.359900,2516.359899,
   ** Warning ** SimHVAC: Maximum iterations (20) exceeded for all HVAC loops, at ANNUAL, 03/23 09:15 - 09:17
   **   ~~~   ** The solution for one or more of the Air Loop HVAC systems did not appear to converge
   **   ~~~   ** Air System Named = CENTRAL SYSTEM did not converge for mass flow rate
   **   ~~~   ** Check values should be zero. Most Recent values listed first.
   **   ~~~   ** Demand-to-Supply interface mass flow rate check value iteration history trace: 7.522245E-002,7.522245E-002,7.522245E-002,7.522245E-002,7.522245E-002,7.522245E-002,7.522245E-002,7.522245E-002,7.522245E-002,7.522245E-002,
   **   ~~~   ** Supply-to-demand interface deck 1 mass flow rate check value iteration history trace: 7.522245E-002,7.522245E-002,7.522245E-002,7.522245E-002,7.522245E-002,7.522245E-002,7.522245E-002,7.522245E-002,7.522245E-002,7.522245E-002,
   **   ~~~   ** Air System Named = CENTRAL SYSTEM did not converge for energy
   **   ~~~   ** Check values should be zero. Most Recent values listed first.
   **   ~~~   ** Demand-to-Supply interface energy check value iteration history trace: 1488.090904,1488.090904,1488.090903,1488.090903,1488.090903,1488.090903,1488.090903,1488.090903,1488.090903,1488.090903,
   **   ~~~   ** Supply-to-demand interface deck 1 energy check value iteration history trace: 2610.744937,2610.744937,2610.744937,2610.744937,2610.744937,2610.744937,2610.744937,2610.744937,2610.744936,2610.744936,
   ** Warning ** SimHVAC: Maximum iterations (20) exceeded for all HVAC loops, at ANNUAL, 03/27 12:30 - 12:38
   **   ~~~   ** The solution for one or more of the Air Loop HVAC systems did not appear to converge
   **   ~~~   ** Air System Named = CENTRAL SYSTEM did not converge for mass flow rate
   **   ~~~   ** Check values should be zero. Most Recent values listed first.
   **   ~~~   ** Demand-to-Supply interface mass flow rate check value iteration history trace: 5.878143E-002,5.878143E-002,5.878143E-002,5.878143E-002,5.878143E-002,5.878143E-002,5.878143E-002,5.878143E-002,5.878143E-002,5.878143E-002,
   **   ~~~   ** Supply-to-demand interface deck 1 mass flow rate check value iteration history trace: 5.878143E-002,5.878143E-002,5.878143E-002,5.878143E-002,5.878143E-002,5.878143E-002,5.878143E-002,5.878143E-002,5.878143E-002,5.878143E-002,
   **   ~~~   ** Air System Named = CENTRAL SYSTEM did not converge for energy
   **   ~~~   ** Check values should be zero. Most Recent values listed first.
   **   ~~~   ** Demand-to-Supply interface energy check value iteration history trace: 1164.874540,1164.874540,1164.874540,1164.874540,1164.874540,1164.874540,1164.874540,1164.874540,1164.874540,1164.874540,
   **   ~~~   ** Supply-to-demand interface deck 1 energy check value iteration history trace: 2024.402342,2024.402342,2024.402342,2024.402342,2024.402342,2024.402342,2024.402342,2024.402341,2024.402341,2024.402341,
   ** Warning ** SimHVAC: Maximum iterations (20) exceeded for all HVAC loops, at ANNUAL, 03/27 22:30 - 22:45
   **   ~~~   ** The solution for one or more of the Air Loop HVAC systems did not appear to converge
   **   ~~~   ** Air System Named = CENTRAL SYSTEM did not converge for mass flow rate
   **   ~~~   ** Check values should be zero. Most Recent values listed first.
   **   ~~~   ** Demand-to-Supply interface mass flow rate check value iteration history trace: 8.031393E-002,8.031393E-002,8.031393E-002,8.031393E-002,8.031393E-002,8.031393E-002,8.031393E-002,8.031393E-002,8.031393E-002,8.031393E-002,
   **   ~~~   ** Supply-to-demand interface deck 1 mass flow rate check value iteration history trace: 8.031393E-002,8.031393E-002,8.031393E-002,8.031393E-002,8.031393E-002,8.031393E-002,8.031393E-002,8.031393E-002,8.031393E-002,8.031393E-002,
   **   ~~~   ** Air System Named = CENTRAL SYSTEM did not converge for energy
   **   ~~~   ** Check values should be zero. Most Recent values listed first.
   **   ~~~   ** Demand-to-Supply interface energy check value iteration history trace: 1501.507836,1501.507836,1501.507836,1501.507836,1501.507836,1501.507835,1501.507835,1501.507835,1501.507835,1501.507835,
   **   ~~~   ** Supply-to-demand interface deck 1 energy check value iteration history trace: 2363.383903,2363.383903,2363.383903,2363.383903,2363.383903,2363.383902,2363.383902,2363.383902,2363.383902,2363.383902,
   ** Warning ** SimHVAC: Maximum iterations (20) exceeded for all HVAC loops, at ANNUAL, 04/22 10:45 - 11:00
   **   ~~~   ** The solution for one or more of the Air Loop HVAC systems did not appear to converge
   **   ~~~   ** Air System Named = CENTRAL SYSTEM did not converge for mass flow rate
   **   ~~~   ** Check values should be zero. Most Recent values listed first.
   **   ~~~   ** Demand-to-Supply interface mass flow rate check value iteration history trace: 5.352817E-002,5.352817E-002,5.352817E-002,5.352817E-002,5.352817E-002,5.352817E-002,5.352817E-002,5.352817E-002,5.352817E-002,5.352817E-002,
   **   ~~~   ** Supply-to-demand interface deck 1 mass flow rate check value iteration history trace: 5.352817E-002,5.352817E-002,5.352817E-002,5.352817E-002,5.352817E-002,5.352817E-002,5.352817E-002,5.352817E-002,5.352817E-002,5.352817E-002,
   **   ~~~   ** Air System Named = CENTRAL SYSTEM did not converge for energy
   **   ~~~   ** Check values should be zero. Most Recent values listed first.
   **   ~~~   ** Demand-to-Supply interface energy check value iteration history trace: 1042.336625,1042.336625,1042.336625,1042.336625,1042.336625,1042.336625,1042.336625,1042.336625,1042.336625,1042.336625,
   **   ~~~   ** Supply-to-demand interface deck 1 energy check value iteration history trace: 1881.533754,1881.533754,1881.533754,1881.533754,1881.533754,1881.533753,1881.533753,1881.533753,1881.533753,1881.533753,
   ************* Simulation Error Summary *************
   ** Warning ** The following Report Variables were requested but not generated -- check.rdd file
   **   ~~~   ** Either the IDF did not contain these elements, the variable name is misspelled,
   **   ~~~   ** or the requested variable is an advanced output which requires Output : Diagnostics, DisplayAdvancedReportVariables;
   ************* Key=*, VarName=BASEBOARD TOTAL HEATING ENERGY, Frequency=
   ************* Key=*, VarName=WATER HEATER NATURALGAS ENERGY, Frequency=
   ************* Key=*, VarName=COOLING COIL TOTAL HEATING ENERGY, Frequency=
   ************* There are 34 unused schedules in input.
   ************* There are 388 unused week schedules in input.
   ************* There are 396 unused day schedules in input.
   ************* Use Output:Diagnostics,DisplayUnusedSchedules; to see them.
   *************
   ************* ===== Recurring Error Summary =====
   ************* The following recurring error messages occurred.
   *************
   *************  ** Warning ** "TOTAL HOT WATER LOAD" - Target water temperature should be less than or equal to the hot water temperature error continues...
   *************  **   ~~~   **   This error occurred 177837 total times;
   *************  **   ~~~   **   during Warmup 0 times;
   *************  **   ~~~   **   during Sizing 0 times.
   *************  **   ~~~   **   Max=13.129131  Min=2.217221E-003
   *************
   *************  ** Warning ** SimHVAC: Exceeding Maximum iterations for all HVAC loops, during ANNUAL continues
   *************  **   ~~~   **   This error occurred 27 total times;
   *************  **   ~~~   **   during Warmup 0 times;
   *************  **   ~~~   **   during Sizing 0 times.
   *************
   *************
   ************* ===== Final Error Summary =====
   ************* The following error categories occurred.  Consider correcting or noting.
   ************* Nominally Unused Constructions
   ************* ..The nominally unused constructions warning is provided to alert you to potential conditions that can cause
   ************* ..extra time during simulation. Each construction is calculated by the algorithm indicated in the HeatBalanceAlgorithm
   ************* ..object. You may remove the constructions indicated (when you use the DisplayExtraWarnings option).
   *************
   ************* EnergyPlus Warmup Error Summary. During Warmup: 1 Warning; 0 Severe Errors.
   ************* EnergyPlus Sizing Error Summary. During Sizing: 4 Warning; 0 Severe Errors.
   ************* EnergyPlus Completed Successfully-- 177896 Warning; 0 Severe Errors; Elapsed Time=00hr 01min 45.71sec
