Program Version,EnergyPlus, Version 22.2.0-c249759bad, YMD=2023.09.01 19:58,
   ************* Beginning Zone Sizing Calculations
   ** Warning ** ProcessScheduleInput: Schedule:Constant="ALWAYS ON DISCRETE", Schedule Type Limits Name="ONOFF" not found -- will not be validated
   ** Warning ** Foundation:Kiva="KIVA FOUNDATION", no Interior Horizontal Insulation Material Name defined
   **   ~~~   ** Interior Horizontal Insulation Depth will not be used.
   ** Warning ** CheckUsedConstructions: There are 15 nominally unused constructions in input.
   **   ~~~   ** Each Unused construction is shown.
   ************* Construction=INTERIOR FLOOR
   ************* Construction=INTERIOR WINDOW
   ************* Construction=EXTERIOR DOOR
   ************* Construction=INTERIOR DOOR
   ************* Construction=GABLE CONSTRUCTION
   ************* Construction=CRAWL_FLOOR
   ************* Construction=INSULATED PIPE
   ************* Construction=PLAIN PIPE
   ************* Construction=TDD PIPE
   ************* Construction=TDD DOME
   ************* Construction=TDD DIFFUSER
   ************* Construction=CRAWL WALL
   ************* Construction=CEILING-FLOOR-LAYER
   ************* Construction=SLAB CONSTRUCTION W FULL R10 INSULATION
   ************* Construction=SLAB CONSTRUCTION W FULL R5 INSULATION
   ** Warning ** GetDXCoils: Coil:Heating:DX:SingleSpeed="DX_HEATING_COIL" curve values
   **   ~~~   ** ... Defrost Energy Input Ratio Function of Temperature Curve Name = DEFROSTEIR output is not equal to 1.0 (+ or - 10%) at rated conditions.
   **   ~~~   ** ... Curve output at rated conditions = 0.152
   ************* Beginning System Sizing Calculations
   ************* Beginning Plant Sizing Calculations
   ** Warning ** SizeDXCoil Coil:Cooling:DX:SingleSpeed DX_COOLING_COIL
   **   ~~~   ** ...Gross Rated Total Cooling Capacity [W] will be limited by the maximum rated volume flow per rated total capacity ratio.
   **   ~~~   ** ...DX coil volume flow rate ( m3/s ) = 0.507066
   **   ~~~   ** ...Requested capacity ( W ) = 5806.830
   **   ~~~   ** ...Requested flow/capacity ratio ( m3/s/W ) = 8.732E-005
   **   ~~~   ** ...Maximum flow/capacity ratio ( m3/s/W ) = 6.041E-005
   **   ~~~   ** ...Adjusted capacity ( W ) = 8393.756
   ** Warning ** Coil:WaterHeating:AirToWaterHeatPump:Wrapped "HEAT PUMP WATER HEATER EVAPORATOR": Rated air volume flow rate per watt of rated total water heating capacity is out of range
   **   ~~~   ** Min Rated Vol Flow Per Watt=[4.027E-005], Rated Vol Flow Per Watt=[1.510E-004], Max Rated Vol Flow Per Watt=[8.056E-005]. See Input-Output Reference Manual for valid range.
   ************* SizeFan: : Potential issue with equipment sizing for Fan:OnOff HEAT PUMP WATER HEATER FAN
   **   ~~~   ** User-Specified Maximum Flow Rate [m3/s] = 0.22653
   **   ~~~   ** differs from Design Size Maximum Flow Rate [m3/s] = 7.55250E-002
   **   ~~~   ** This may, or may not, indicate mismatched component sizes.
   **   ~~~   ** Verify that the value entered is intended and is consistent with other components.
   ** Warning ** Water heater = WATER HEATER TANK:  Recovery Efficiency and Energy Factor could not be calculated during the test for standard ratings
   **   ~~~   ** Setpoint was never recovered and/or heater never turned on
   ** Warning ** Check input. Pump nominal power or motor efficiency is set to 0, for pump=MAINS PRESSURE
   ** Warning ** Output:Meter: invalid Key Name="ELECTRIC_RANGE:INTERIOREQUIPMENT:ELECTRICITY" - not found.
   ** Warning ** Output:Meter: invalid Key Name="ELECTRIC_DRYER:INTERIOREQUIPMENT:ELECTRICITY" - not found.
   ** Warning ** Output:Meter: invalid Key Name="HEATRECOVERY:ELECTRICITY" - not found.
   ** Warning ** Output:Meter: invalid Key Name="HEATING:NATURALGAS" - not found.
   ** Warning ** Output:Meter: invalid Key Name="WATERSYSTEMS:NATURALGAS" - not found.
   ** Warning ** Output:Meter: invalid Key Name="PROPANE:FACILITY" - not found.
   ** Warning ** Output:Meter: invalid Key Name="HEATING:PROPANE" - not found.
   ************* Testing Individual Branch Integrity
   ************* All Branches passed integrity testing
   ************* Testing Individual Supply Air Path Integrity
   ************* All Supply Air Paths passed integrity testing
   ************* Testing Individual Return Air Path Integrity
   ************* All Return Air Paths passed integrity testing
   ************* No node connection errors were found.
   ************* Beginning Simulation
   ** Warning ** AirflowNetwork::Solver::validate_distribution: Heat pump water heater is simulated along with an AirflowNetwork but is not included in the AirflowNetwork.
   ** Warning ** CalcEquipmentFlowRates: "TOTAL HOT WATER LOAD" - Target water temperature is greater than the hot water temperature by (3.96 C)
   **   ~~~   **  Environment=EXTREME_WINTER, at Simulation time=01/27 07:00 - 07:15
   **   ~~~   ** ...target water temperature     = 53.33 C
   **   ~~~   ** ...hot water temperature        = 49.38 C
   **   ~~~   ** ...Target water temperature should be less than or equal to the hot water temperature. Verify temperature setpoints and schedules.
   ** Warning ** SimHVAC: Maximum iterations (20) exceeded for all HVAC loops, at EXTREME_WINTER, 01/30 19:15 - 19:20
   **   ~~~   ** The solution for one or more of the Air Loop HVAC systems did not appear to converge
   **   ~~~   ** Air System Named = CENTRAL SYSTEM did not converge for mass flow rate
   **   ~~~   ** Check values should be zero. Most Recent values listed first.
   **   ~~~   ** Demand-to-Supply interface mass flow rate check value iteration history trace: 7.968498E-002,7.968498E-002,7.968498E-002,7.968498E-002,7.968498E-002,7.968498E-002,7.968498E-002,7.968498E-002,7.968498E-002,7.968498E-002,
   **   ~~~   ** Supply-to-demand interface deck 1 mass flow rate check value iteration history trace: 7.968498E-002,7.968498E-002,7.968498E-002,7.968498E-002,7.968498E-002,7.968498E-002,7.968498E-002,7.968498E-002,7.968498E-002,7.968498E-002,
   **   ~~~   ** Air System Named = CENTRAL SYSTEM did not converge for energy
   **   ~~~   ** Check values should be zero. Most Recent values listed first.
   **   ~~~   ** Demand-to-Supply interface energy check value iteration history trace: 1571.365436,1571.365435,1571.365435,1571.365435,1571.365435,1571.365435,1571.365435,1571.365435,1571.365435,1571.365435,
   **   ~~~   ** Supply-to-demand interface deck 1 energy check value iteration history trace: 2412.836206,2412.836206,2412.836206,2412.836206,2412.836206,2412.836205,2412.836205,2412.836205,2412.836205,2412.836205,
   ** Warning ** SimHVAC: Maximum iterations (20) exceeded for all HVAC loops, at ANNUAL, 01/09 11:15 - 11:30
   **   ~~~   ** The solution for one or more of the Air Loop HVAC systems did not appear to converge
   **   ~~~   ** Air System Named = CENTRAL SYSTEM did not converge for mass flow rate
   **   ~~~   ** Check values should be zero. Most Recent values listed first.
   **   ~~~   ** Demand-to-Supply interface mass flow rate check value iteration history trace: 6.545521E-002,6.545521E-002,6.545521E-002,6.545521E-002,6.545521E-002,6.545521E-002,6.545521E-002,6.545521E-002,6.545521E-002,6.545521E-002,
   **   ~~~   ** Supply-to-demand interface deck 1 mass flow rate check value iteration history trace: 6.545521E-002,6.545521E-002,6.545521E-002,6.545521E-002,6.545521E-002,6.545521E-002,6.545521E-002,6.545521E-002,6.545521E-002,6.545521E-002,
   **   ~~~   ** Air System Named = CENTRAL SYSTEM did not converge for energy
   **   ~~~   ** Check values should be zero. Most Recent values listed first.
   **   ~~~   ** Demand-to-Supply interface energy check value iteration history trace: 1297.120997,1297.120997,1297.120997,1297.120997,1297.120997,1297.120997,1297.120997,1297.120997,1297.120997,1297.120997,
   **   ~~~   ** Supply-to-demand interface deck 1 energy check value iteration history trace: 2210.107156,2210.107156,2210.107156,2210.107155,2210.107155,2210.107155,2210.107155,2210.107155,2210.107155,2210.107155,
   ** Warning ** SimHVAC: Maximum iterations (20) exceeded for all HVAC loops, at ANNUAL, 01/09 11:15 - 11:18
   **   ~~~   ** The solution for one or more of the Air Loop HVAC systems did not appear to converge
   **   ~~~   ** Air System Named = CENTRAL SYSTEM did not converge for mass flow rate
   **   ~~~   ** Check values should be zero. Most Recent values listed first.
   **   ~~~   ** Demand-to-Supply interface mass flow rate check value iteration history trace: 6.593825E-002,6.593825E-002,6.593825E-002,6.593825E-002,6.593825E-002,6.593825E-002,6.593825E-002,6.593825E-002,6.593825E-002,6.593825E-002,
   **   ~~~   ** Supply-to-demand interface deck 1 mass flow rate check value iteration history trace: 6.593825E-002,6.593825E-002,6.593825E-002,6.593825E-002,6.593825E-002,6.593825E-002,6.593825E-002,6.593825E-002,6.593825E-002,6.593825E-002,
   **   ~~~   ** Air System Named = CENTRAL SYSTEM did not converge for energy
   **   ~~~   ** Check values should be zero. Most Recent values listed first.
   **   ~~~   ** Demand-to-Supply interface energy check value iteration history trace: 1306.677840,1306.677840,1306.677840,1306.677840,1306.677840,1306.677840,1306.677839,1306.677839,1306.677839,1306.677839,
   **   ~~~   ** Supply-to-demand interface deck 1 energy check value iteration history trace: 2226.449235,2226.449235,2226.449235,2226.449235,2226.449235,2226.449235,2226.449235,2226.449235,2226.449235,2226.449235,
   ** Warning ** SimHVAC: Maximum iterations (20) exceeded for all HVAC loops, at ANNUAL, 01/10 11:48 - 11:51
   **   ~~~   ** The solution for one or more of the Air Loop HVAC systems did not appear to converge
   **   ~~~   ** Air System Named = CENTRAL SYSTEM did not converge for mass flow rate
   **   ~~~   ** Check values should be zero. Most Recent values listed first.
   **   ~~~   ** Demand-to-Supply interface mass flow rate check value iteration history trace: 7.913768E-002,7.913768E-002,7.913768E-002,7.913768E-002,7.913768E-002,7.913768E-002,7.913768E-002,7.913768E-002,7.913768E-002,7.913768E-002,
   **   ~~~   ** Supply-to-demand interface deck 1 mass flow rate check value iteration history trace: 7.913768E-002,7.913768E-002,7.913768E-002,7.913768E-002,7.913768E-002,7.913768E-002,7.913768E-002,7.913768E-002,7.913768E-002,7.913768E-002,
   **   ~~~   ** Air System Named = CENTRAL SYSTEM did not converge for energy
   **   ~~~   ** Check values should be zero. Most Recent values listed first.
   **   ~~~   ** Demand-to-Supply interface energy check value iteration history trace: 1568.361302,1568.361302,1568.361302,1568.361302,1568.361302,1568.361302,1568.361302,1568.361302,1568.361302,1568.361302,
   **   ~~~   ** Supply-to-demand interface deck 1 energy check value iteration history trace: 2596.808016,2596.808016,2596.808016,2596.808016,2596.808015,2596.808015,2596.808015,2596.808015,2596.808015,2596.808015,
   ** Warning ** SimHVAC: Maximum iterations (20) exceeded for all HVAC loops, at ANNUAL, 01/18 11:30 - 11:45
   **   ~~~   ** The solution for one or more of the Air Loop HVAC systems did not appear to converge
   **   ~~~   ** Air System Named = CENTRAL SYSTEM did not converge for mass flow rate
   **   ~~~   ** Check values should be zero. Most Recent values listed first.
   **   ~~~   ** Demand-to-Supply interface mass flow rate check value iteration history trace: 6.949036E-002,6.949036E-002,6.949036E-002,6.949036E-002,6.949036E-002,6.949036E-002,6.949036E-002,6.949036E-002,6.949036E-002,6.949036E-002,
   **   ~~~   ** Supply-to-demand interface deck 1 mass flow rate check value iteration history trace: 6.949036E-002,6.949036E-002,6.949036E-002,6.949036E-002,6.949036E-002,6.949036E-002,6.949036E-002,6.949036E-002,6.949036E-002,6.949036E-002,
   **   ~~~   ** Air System Named = CENTRAL SYSTEM did not converge for energy
   **   ~~~   ** Check values should be zero. Most Recent values listed first.
   **   ~~~   ** Demand-to-Supply interface energy check value iteration history trace: 1377.106723,1377.106723,1377.106723,1377.106723,1377.106723,1377.106723,1377.106723,1377.106723,1377.106723,1377.106723,
   **   ~~~   ** Supply-to-demand interface deck 1 energy check value iteration history trace: 2278.024301,2278.024301,2278.024301,2278.024301,2278.024301,2278.024301,2278.024300,2278.024300,2278.024300,2278.024300,
   ** Warning ** SimHVAC: Maximum iterations (20) exceeded for all HVAC loops, at ANNUAL, 01/26 15:00 - 15:15
   **   ~~~   ** The solution for one or more of the Air Loop HVAC systems did not appear to converge
   **   ~~~   ** Air System Named = CENTRAL SYSTEM did not converge for mass flow rate
   **   ~~~   ** Check values should be zero. Most Recent values listed first.
   **   ~~~   ** Demand-to-Supply interface mass flow rate check value iteration history trace: 5.892559E-002,5.892559E-002,5.892559E-002,5.892559E-002,5.892559E-002,5.892559E-002,5.892559E-002,5.892559E-002,5.892559E-002,5.892559E-002,
   **   ~~~   ** Supply-to-demand interface deck 1 mass flow rate check value iteration history trace: 5.892559E-002,5.892559E-002,5.892559E-002,5.892559E-002,5.892559E-002,5.892559E-002,5.892559E-002,5.892559E-002,5.892559E-002,5.892559E-002,
   **   ~~~   ** Air System Named = CENTRAL SYSTEM did not converge for energy
   **   ~~~   ** Check values should be zero. Most Recent values listed first.
   **   ~~~   ** Demand-to-Supply interface energy check value iteration history trace: 1167.663738,1167.663738,1167.663738,1167.663738,1167.663738,1167.663738,1167.663738,1167.663737,1167.663737,1167.663737,
   **   ~~~   ** Supply-to-demand interface deck 1 energy check value iteration history trace: 1784.956905,1784.956905,1784.956905,1784.956905,1784.956905,1784.956905,1784.956905,1784.956905,1784.956904,1784.956904,
   ** Warning ** SimHVAC: Maximum iterations (20) exceeded for all HVAC loops, at ANNUAL, 02/10 12:45 - 12:47
   **   ~~~   ** The solution for one or more of the Air Loop HVAC systems did not appear to converge
   **   ~~~   ** Air System Named = CENTRAL SYSTEM did not converge for mass flow rate
   **   ~~~   ** Check values should be zero. Most Recent values listed first.
   **   ~~~   ** Demand-to-Supply interface mass flow rate check value iteration history trace: 5.793848E-002,5.793848E-002,5.793848E-002,5.793848E-002,5.793848E-002,5.793848E-002,5.793848E-002,5.793848E-002,5.793848E-002,5.793848E-002,
   **   ~~~   ** Supply-to-demand interface deck 1 mass flow rate check value iteration history trace: 5.793848E-002,5.793848E-002,5.793848E-002,5.793848E-002,5.793848E-002,5.793848E-002,5.793848E-002,5.793848E-002,5.793848E-002,5.793848E-002,
   **   ~~~   ** Air System Named = CENTRAL SYSTEM did not converge for energy
   **   ~~~   ** Check values should be zero. Most Recent values listed first.
   **   ~~~   ** Demand-to-Supply interface energy check value iteration history trace: 1144.203777,1144.203777,1144.203777,1144.203777,1144.203776,1144.203776,1144.203776,1144.203776,1144.203776,1144.203776,
   **   ~~~   ** Supply-to-demand interface deck 1 energy check value iteration history trace: 2000.760197,2000.760197,2000.760197,2000.760197,2000.760197,2000.760197,2000.760197,2000.760196,2000.760196,2000.760196,
   ** Warning ** SimHVAC: Maximum iterations (20) exceeded for all HVAC loops, at ANNUAL, 02/17 10:45 - 10:47
   **   ~~~   ** The solution for one or more of the Air Loop HVAC systems did not appear to converge
   **   ~~~   ** Air System Named = CENTRAL SYSTEM did not converge for mass flow rate
   **   ~~~   ** Check values should be zero. Most Recent values listed first.
   **   ~~~   ** Demand-to-Supply interface mass flow rate check value iteration history trace: 7.415952E-002,7.415952E-002,7.415952E-002,7.415952E-002,7.415952E-002,7.415952E-002,7.415952E-002,7.415952E-002,7.415952E-002,7.415952E-002,
   **   ~~~   ** Supply-to-demand interface deck 1 mass flow rate check value iteration history trace: 7.415952E-002,7.415952E-002,7.415952E-002,7.415952E-002,7.415952E-002,7.415952E-002,7.415952E-002,7.415952E-002,7.415952E-002,7.415952E-002,
   **   ~~~   ** Air System Named = CENTRAL SYSTEM did not converge for energy
   **   ~~~   ** Check values should be zero. Most Recent values listed first.
   **   ~~~   ** Demand-to-Supply interface energy check value iteration history trace: 1465.797396,1465.797396,1465.797396,1465.797396,1465.797396,1465.797396,1465.797395,1465.797395,1465.797395,1465.797395,
   **   ~~~   ** Supply-to-demand interface deck 1 energy check value iteration history trace: 2474.911105,2474.911105,2474.911105,2474.911105,2474.911105,2474.911105,2474.911104,2474.911104,2474.911104,2474.911104,
   ** Warning ** SimHVAC: Maximum iterations (20) exceeded for all HVAC loops, at ANNUAL, 02/19 11:53 - 12:00
   **   ~~~   ** The solution for one or more of the Air Loop HVAC systems did not appear to converge
   **   ~~~   ** Air System Named = CENTRAL SYSTEM did not converge for mass flow rate
   **   ~~~   ** Check values should be zero. Most Recent values listed first.
   **   ~~~   ** Demand-to-Supply interface mass flow rate check value iteration history trace: 5.466754E-002,5.466754E-002,5.466754E-002,5.466754E-002,5.466754E-002,5.466754E-002,5.466754E-002,5.466754E-002,5.466754E-002,5.466754E-002,
   **   ~~~   ** Supply-to-demand interface deck 1 mass flow rate check value iteration history trace: 5.466754E-002,5.466754E-002,5.466754E-002,5.466754E-002,5.466754E-002,5.466754E-002,5.466754E-002,5.466754E-002,5.466754E-002,5.466754E-002,
   **   ~~~   ** Air System Named = CENTRAL SYSTEM did not converge for energy
   **   ~~~   ** Check values should be zero. Most Recent values listed first.
   **   ~~~   ** Demand-to-Supply interface energy check value iteration history trace: 1077.042315,1077.042315,1077.042315,1077.042315,1077.042315,1077.042315,1077.042315,1077.042315,1077.042315,1077.042314,
   **   ~~~   ** Supply-to-demand interface deck 1 energy check value iteration history trace: 2023.989878,2023.989878,2023.989878,2023.989878,2023.989878,2023.989878,2023.989878,2023.989878,2023.989878,2023.989877,
   ** Warning ** SimHVAC: Maximum iterations (20) exceeded for all HVAC loops, at ANNUAL, 02/22 10:15 - 10:17
   **   ~~~   ** The solution for one or more of the Air Loop HVAC systems did not appear to converge
   **   ~~~   ** Air System Named = CENTRAL SYSTEM did not converge for mass flow rate
   **   ~~~   ** Check values should be zero. Most Recent values listed first.
   **   ~~~   ** Demand-to-Supply interface mass flow rate check value iteration history trace: 8.430817E-002,8.430817E-002,8.430817E-002,8.430817E-002,8.430817E-002,8.430817E-002,8.430817E-002,8.430817E-002,8.430817E-002,8.430817E-002,
   **   ~~~   ** Supply-to-demand interface deck 1 mass flow rate check value iteration history trace: 8.430817E-002,8.430817E-002,8.430817E-002,8.430817E-002,8.430817E-002,8.430817E-002,8.430817E-002,8.430817E-002,8.430817E-002,8.430817E-002,
   **   ~~~   ** Air System Named = CENTRAL SYSTEM did not converge for energy
   **   ~~~   ** Check values should be zero. Most Recent values listed first.
   **   ~~~   ** Demand-to-Supply interface energy check value iteration history trace: 1670.752633,1670.752633,1670.752633,1670.752633,1670.752633,1670.752633,1670.752633,1670.752633,1670.752632,1670.752632,
   **   ~~~   ** Supply-to-demand interface deck 1 energy check value iteration history trace: 2704.135099,2704.135099,2704.135099,2704.135098,2704.135098,2704.135098,2704.135098,2704.135098,2704.135098,2704.135098,
   ** Warning ** SimHVAC: Maximum iterations (20) exceeded for all HVAC loops, at ANNUAL, 02/23 12:30 - 12:45
   **   ~~~   ** The solution for one or more of the Air Loop HVAC systems did not appear to converge
   **   ~~~   ** Air System Named = CENTRAL SYSTEM did not converge for mass flow rate
   **   ~~~   ** Check values should be zero. Most Recent values listed first.
   **   ~~~   ** Demand-to-Supply interface mass flow rate check value iteration history trace: 5.146626E-002,5.146626E-002,5.146626E-002,5.146626E-002,5.146626E-002,5.146626E-002,5.146626E-002,5.146626E-002,5.146626E-002,5.146626E-002,
   **   ~~~   ** Supply-to-demand interface deck 1 mass flow rate check value iteration history trace: 5.146626E-002,5.146626E-002,5.146626E-002,5.146626E-002,5.146626E-002,5.146626E-002,5.146626E-002,5.146626E-002,5.146626E-002,5.146626E-002,
   **   ~~~   ** Air System Named = CENTRAL SYSTEM did not converge for energy
   **   ~~~   ** Check values should be zero. Most Recent values listed first.
   **   ~~~   ** Demand-to-Supply interface energy check value iteration history trace: 1014.379154,1014.379154,1014.379154,1014.379154,1014.379154,1014.379154,1014.379154,1014.379154,1014.379154,1014.379154,
   **   ~~~   ** Supply-to-demand interface deck 1 energy check value iteration history trace: 1896.567662,1896.567662,1896.567662,1896.567662,1896.567662,1896.567662,1896.567662,1896.567662,1896.567662,1896.567662,
   ** Warning ** SimHVAC: Maximum iterations (20) exceeded for all HVAC loops, at ANNUAL, 02/23 13:05 - 13:10
   **   ~~~   ** The solution for one or more of the Air Loop HVAC systems did not appear to converge
   **   ~~~   ** Air System Named = CENTRAL SYSTEM did not converge for mass flow rate
   **   ~~~   ** Check values should be zero. Most Recent values listed first.
   **   ~~~   ** Demand-to-Supply interface mass flow rate check value iteration history trace: 5.572020E-002,5.572020E-002,5.572020E-002,5.572020E-002,5.572020E-002,5.572020E-002,5.572020E-002,5.572020E-002,5.572020E-002,5.572020E-002,
   **   ~~~   ** Supply-to-demand interface deck 1 mass flow rate check value iteration history trace: 5.572020E-002,5.572020E-002,5.572020E-002,5.572020E-002,5.572020E-002,5.572020E-002,5.572020E-002,5.572020E-002,5.572020E-002,5.572020E-002,
   **   ~~~   ** Air System Named = CENTRAL SYSTEM did not converge for energy
   **   ~~~   ** Check values should be zero. Most Recent values listed first.
   **   ~~~   ** Demand-to-Supply interface energy check value iteration history trace: 1103.884257,1103.884257,1103.884257,1103.884257,1103.884257,1103.884257,1103.884257,1103.884257,1103.884256,1103.884256,
   **   ~~~   ** Supply-to-demand interface deck 1 energy check value iteration history trace: 1933.487131,1933.487131,1933.487131,1933.487131,1933.487131,1933.487131,1933.487130,1933.487130,1933.487130,1933.487130,
   ** Warning ** Temperature out of range [-100. to 200.] (PsyPsatFnTemp)
   **   ~~~   **  Routine=PsyTwbFnTdbWPb, Environment=ANNUAL, at Simulation time=03/05 17:45 - 18:00
   **   ~~~   **  Input Temperature=-161.61
   ** Warning ** SimHVAC: Maximum iterations (20) exceeded for all HVAC loops, at ANNUAL, 03/08 11:30 - 11:38
   **   ~~~   ** The solution for one or more of the Air Loop HVAC systems did not appear to converge
   **   ~~~   ** Air System Named = CENTRAL SYSTEM did not converge for mass flow rate
   **   ~~~   ** Check values should be zero. Most Recent values listed first.
   **   ~~~   ** Demand-to-Supply interface mass flow rate check value iteration history trace: 7.122034E-002,7.122034E-002,7.122034E-002,7.122034E-002,7.122034E-002,7.122034E-002,7.122034E-002,7.122034E-002,7.122034E-002,7.122034E-002,
   **   ~~~   ** Supply-to-demand interface deck 1 mass flow rate check value iteration history trace: 7.122034E-002,7.122034E-002,7.122034E-002,7.122034E-002,7.122034E-002,7.122034E-002,7.122034E-002,7.122034E-002,7.122034E-002,7.122034E-002,
   **   ~~~   ** Air System Named = CENTRAL SYSTEM did not converge for energy
   **   ~~~   ** Check values should be zero. Most Recent values listed first.
   **   ~~~   ** Demand-to-Supply interface energy check value iteration history trace: 1411.333090,1411.333090,1411.333090,1411.333090,1411.333090,1411.333090,1411.333090,1411.333090,1411.333089,1411.333089,
   **   ~~~   ** Supply-to-demand interface deck 1 energy check value iteration history trace: 2347.305403,2347.305403,2347.305403,2347.305403,2347.305402,2347.305402,2347.305402,2347.305402,2347.305402,2347.305402,
   ** Warning ** SimHVAC: Maximum iterations (20) exceeded for all HVAC loops, at ANNUAL, 03/12 10:00 - 10:15
   **   ~~~   ** The solution for one or more of the Air Loop HVAC systems did not appear to converge
   **   ~~~   ** Air System Named = CENTRAL SYSTEM did not converge for mass flow rate
   **   ~~~   ** Check values should be zero. Most Recent values listed first.
   **   ~~~   ** Demand-to-Supply interface mass flow rate check value iteration history trace: 8.054490E-002,8.054490E-002,8.054490E-002,8.054490E-002,8.054490E-002,8.054490E-002,8.054490E-002,8.054490E-002,8.054490E-002,8.054490E-002,
   **   ~~~   ** Supply-to-demand interface deck 1 mass flow rate check value iteration history trace: 8.054490E-002,8.054490E-002,8.054490E-002,8.054490E-002,8.054490E-002,8.054490E-002,8.054490E-002,8.054490E-002,8.054490E-002,8.054490E-002,
   **   ~~~   ** Air System Named = CENTRAL SYSTEM did not converge for energy
   **   ~~~   ** Check values should be zero. Most Recent values listed first.
   **   ~~~   ** Demand-to-Supply interface energy check value iteration history trace: 1596.172436,1596.172436,1596.172436,1596.172436,1596.172436,1596.172436,1596.172436,1596.172436,1596.172436,1596.172436,
   **   ~~~   ** Supply-to-demand interface deck 1 energy check value iteration history trace: 2658.570937,2658.570937,2658.570937,2658.570936,2658.570936,2658.570936,2658.570936,2658.570936,2658.570936,2658.570936,
   ** Warning ** CalcDoe2DXCoil: Coil:Cooling:DX:SingleSpeed "DX_COOLING_COIL" - Air-cooled condenser inlet dry-bulb temperature below 0 C. Outdoor dry-bulb temperature = -0.30
   **   ~~~   **  ... Occurrence info = ANNUAL, 05/01 19:15 - 19:19
   **   ~~~   ** ... Operation at low ambient temperatures may require special performance curves.
   ************* Simulation Error Summary *************
   ** Warning ** The following Report Variables were requested but not generated -- check.rdd file
   **   ~~~   ** Either the IDF did not contain these elements, the variable name is misspelled,
   **   ~~~   ** or the requested variable is an advanced output which requires Output : Diagnostics, DisplayAdvancedReportVariables;
   ************* Key=*, VarName=BASEBOARD TOTAL HEATING ENERGY, Frequency=
   ************* Key=*, VarName=WATER HEATER NATURALGAS ENERGY, Frequency=
   ************* Key=*, VarName=COOLING COIL TOTAL HEATING ENERGY, Frequency=
   ************* There are 34 unused schedules in input.
   ************* There are 388 unused week schedules in input.
   ************* There are 396 unused day schedules in input.
   ************* Use Output:Diagnostics,DisplayUnusedSchedules; to see them.
   *************
   ************* ===== Recurring Error Summary =====
   ************* The following recurring error messages occurred.
   *************
   *************  ** Warning ** "TOTAL HOT WATER LOAD" - Target water temperature should be less than or equal to the hot water temperature error continues...
   *************  **   ~~~   **   This error occurred 236487 total times;
   *************  **   ~~~   **   during Warmup 0 times;
   *************  **   ~~~   **   during Sizing 0 times.
   *************  **   ~~~   **   Max=17.184583  Min=5.957133E-004
   *************
   *************  ** Warning ** Temperature out of range [-100. to 200.] (PsyPsatFnTemp)
   *************  **   ~~~   **   This error occurred 65 total times;
   *************  **   ~~~   **   during Warmup 0 times;
   *************  **   ~~~   **   during Sizing 0 times.
   *************  **   ~~~   **   Max=-102.623325 C  Min=-17901.960938 C
   *************
   *************  ** Warning ** SimHVAC: Exceeding Maximum iterations for all HVAC loops, during ANNUAL continues
   *************  **   ~~~   **   This error occurred 54 total times;
   *************  **   ~~~   **   during Warmup 0 times;
   *************  **   ~~~   **   during Sizing 0 times.
   *************
   *************  ** Warning ** CalcDoe2DXCoil: Coil:Cooling:DX:SingleSpeed="DX_COOLING_COIL" - Low condenser dry-bulb temperature error continues...
   *************  **   ~~~   **   This error occurred 31 total times;
   *************  **   ~~~   **   during Warmup 0 times;
   *************  **   ~~~   **   during Sizing 0 times.
   *************  **   ~~~   **   Max=-2.500000E-002 [C]  Min=-1.7 [C]
   *************
   *************
   ************* ===== Final Error Summary =====
   ************* The following error categories occurred.  Consider correcting or noting.
   ************* Nominally Unused Constructions
   ************* ..The nominally unused constructions warning is provided to alert you to potential conditions that can cause
   ************* ..extra time during simulation. Each construction is calculated by the algorithm indicated in the HeatBalanceAlgorithm
   ************* ..object. You may remove the constructions indicated (when you use the DisplayExtraWarnings option).
   *************
   ************* EnergyPlus Warmup Error Summary. During Warmup: 1 Warning; 0 Severe Errors.
   ************* EnergyPlus Sizing Error Summary. During Sizing: 4 Warning; 0 Severe Errors.
   ************* EnergyPlus Completed Successfully-- 236669 Warning; 0 Severe Errors; Elapsed Time=00hr 01min 57.49sec
