Program Version,EnergyPlus, Version 22.2.0-c249759bad, YMD=2023.09.01 18:53,
   ************* Beginning Zone Sizing Calculations
   ** Warning ** ProcessScheduleInput: Schedule:Constant="ALWAYS ON DISCRETE", Schedule Type Limits Name="ONOFF" not found -- will not be validated
   ** Warning ** Foundation:Kiva="KIVA FOUNDATION", no Interior Horizontal Insulation Material Name defined
   **   ~~~   ** Interior Horizontal Insulation Depth will not be used.
   ** Warning ** CheckUsedConstructions: There are 15 nominally unused constructions in input.
   **   ~~~   ** Each Unused construction is shown.
   ************* Construction=INTERIOR FLOOR
   ************* Construction=INTERIOR WINDOW
   ************* Construction=EXTERIOR DOOR
   ************* Construction=INTERIOR DOOR
   ************* Construction=GABLE CONSTRUCTION
   ************* Construction=CRAWL_FLOOR
   ************* Construction=INSULATED PIPE
   ************* Construction=PLAIN PIPE
   ************* Construction=TDD PIPE
   ************* Construction=TDD DOME
   ************* Construction=TDD DIFFUSER
   ************* Construction=CRAWL WALL
   ************* Construction=CEILING-FLOOR-LAYER
   ************* Construction=SLAB CONSTRUCTION W FULL R10 INSULATION
   ************* Construction=SLAB CONSTRUCTION W FULL R5 INSULATION
   ** Warning ** GetDXCoils: Coil:Heating:DX:SingleSpeed="DX_HEATING_COIL" curve values
   **   ~~~   ** ... Defrost Energy Input Ratio Function of Temperature Curve Name = DEFROSTEIR output is not equal to 1.0 (+ or - 10%) at rated conditions.
   **   ~~~   ** ... Curve output at rated conditions = 0.152
   ************* Beginning System Sizing Calculations
   ************* Beginning Plant Sizing Calculations
   ** Warning ** SizeDXCoil Coil:Cooling:DX:SingleSpeed DX_COOLING_COIL
   **   ~~~   ** ...Gross Rated Total Cooling Capacity [W] will be limited by the maximum rated volume flow per rated total capacity ratio.
   **   ~~~   ** ...DX coil volume flow rate ( m3/s ) = 0.490836
   **   ~~~   ** ...Requested capacity ( W ) = 6361.641
   **   ~~~   ** ...Requested flow/capacity ratio ( m3/s/W ) = 7.715E-005
   **   ~~~   ** ...Maximum flow/capacity ratio ( m3/s/W ) = 6.041E-005
   **   ~~~   ** ...Adjusted capacity ( W ) = 8125.082
   ** Warning ** Coil:WaterHeating:AirToWaterHeatPump:Wrapped "HEAT PUMP WATER HEATER EVAPORATOR": Rated air volume flow rate per watt of rated total water heating capacity is out of range
   **   ~~~   ** Min Rated Vol Flow Per Watt=[4.027E-005], Rated Vol Flow Per Watt=[1.510E-004], Max Rated Vol Flow Per Watt=[8.056E-005]. See Input-Output Reference Manual for valid range.
   ************* SizeFan: : Potential issue with equipment sizing for Fan:OnOff HEAT PUMP WATER HEATER FAN
   **   ~~~   ** User-Specified Maximum Flow Rate [m3/s] = 0.22653
   **   ~~~   ** differs from Design Size Maximum Flow Rate [m3/s] = 7.55250E-002
   **   ~~~   ** This may, or may not, indicate mismatched component sizes.
   **   ~~~   ** Verify that the value entered is intended and is consistent with other components.
   ** Warning ** Water heater = WATER HEATER TANK:  Recovery Efficiency and Energy Factor could not be calculated during the test for standard ratings
   **   ~~~   ** Setpoint was never recovered and/or heater never turned on
   ** Warning ** Check input. Pump nominal power or motor efficiency is set to 0, for pump=MAINS PRESSURE
   ** Warning ** Output:Meter: invalid Key Name="ELECTRIC_RANGE:INTERIOREQUIPMENT:ELECTRICITY" - not found.
   ** Warning ** Output:Meter: invalid Key Name="ELECTRIC_DRYER:INTERIOREQUIPMENT:ELECTRICITY" - not found.
   ** Warning ** Output:Meter: invalid Key Name="HEATRECOVERY:ELECTRICITY" - not found.
   ** Warning ** Output:Meter: invalid Key Name="HEATING:NATURALGAS" - not found.
   ** Warning ** Output:Meter: invalid Key Name="WATERSYSTEMS:NATURALGAS" - not found.
   ** Warning ** Output:Meter: invalid Key Name="PROPANE:FACILITY" - not found.
   ** Warning ** Output:Meter: invalid Key Name="HEATING:PROPANE" - not found.
   ************* Testing Individual Branch Integrity
   ************* All Branches passed integrity testing
   ************* Testing Individual Supply Air Path Integrity
   ************* All Supply Air Paths passed integrity testing
   ************* Testing Individual Return Air Path Integrity
   ************* All Return Air Paths passed integrity testing
   ************* No node connection errors were found.
   ************* Beginning Simulation
   ** Warning ** AirflowNetwork::Solver::validate_distribution: Heat pump water heater is simulated along with an AirflowNetwork but is not included in the AirflowNetwork.
   ** Warning ** CalcEquipmentFlowRates: "TOTAL HOT WATER LOAD" - Target water temperature is greater than the hot water temperature by (2.65 C)
   **   ~~~   **  Environment=EXTREME_WINTER, at Simulation time=12/15 03:45 - 04:00
   **   ~~~   ** ...target water temperature     = 53.33 C
   **   ~~~   ** ...hot water temperature        = 50.68 C
   **   ~~~   ** ...Target water temperature should be less than or equal to the hot water temperature. Verify temperature setpoints and schedules.
   ** Warning ** SimHVAC: Maximum iterations (20) exceeded for all HVAC loops, at ANNUAL, 02/21 16:15 - 16:20
   **   ~~~   ** The solution for one or more of the Air Loop HVAC systems did not appear to converge
   **   ~~~   ** Air System Named = CENTRAL SYSTEM did not converge for mass flow rate
   **   ~~~   ** Check values should be zero. Most Recent values listed first.
   **   ~~~   ** Demand-to-Supply interface mass flow rate check value iteration history trace: 6.880986E-002,6.880986E-002,6.880986E-002,6.880986E-002,6.880986E-002,6.880986E-002,6.880986E-002,6.880986E-002,6.880986E-002,6.880986E-002,
   **   ~~~   ** Supply-to-demand interface deck 1 mass flow rate check value iteration history trace: 6.880986E-002,6.880986E-002,6.880986E-002,6.880986E-002,6.880986E-002,6.880986E-002,6.880986E-002,6.880986E-002,6.880986E-002,6.880986E-002,
   **   ~~~   ** Air System Named = CENTRAL SYSTEM did not converge for energy
   **   ~~~   ** Check values should be zero. Most Recent values listed first.
   **   ~~~   ** Demand-to-Supply interface energy check value iteration history trace: 1367.525601,1367.525601,1367.525601,1367.525601,1367.525601,1367.525601,1367.525601,1367.525601,1367.525601,1367.525600,
   **   ~~~   ** Supply-to-demand interface deck 1 energy check value iteration history trace: 2117.757759,2117.757759,2117.757759,2117.757758,2117.757758,2117.757758,2117.757758,2117.757758,2117.757758,2117.757758,
   ** Warning ** SimHVAC: Maximum iterations (20) exceeded for all HVAC loops, at ANNUAL, 02/24 17:38 - 17:45
   **   ~~~   ** The solution for one or more of the Air Loop HVAC systems did not appear to converge
   **   ~~~   ** Air System Named = CENTRAL SYSTEM did not converge for mass flow rate
   **   ~~~   ** Check values should be zero. Most Recent values listed first.
   **   ~~~   ** Demand-to-Supply interface mass flow rate check value iteration history trace: 7.581304E-002,7.581304E-002,7.581304E-002,7.581304E-002,7.581304E-002,7.581304E-002,7.581304E-002,7.581304E-002,7.581304E-002,7.581304E-002,
   **   ~~~   ** Supply-to-demand interface deck 1 mass flow rate check value iteration history trace: 7.581304E-002,7.581304E-002,7.581304E-002,7.581304E-002,7.581304E-002,7.581304E-002,7.581304E-002,7.581304E-002,7.581304E-002,7.581304E-002,
   **   ~~~   ** Air System Named = CENTRAL SYSTEM did not converge for energy
   **   ~~~   ** Check values should be zero. Most Recent values listed first.
   **   ~~~   ** Demand-to-Supply interface energy check value iteration history trace: 1501.635283,1501.635283,1501.635283,1501.635283,1501.635283,1501.635283,1501.635283,1501.635283,1501.635283,1501.635282,
   **   ~~~   ** Supply-to-demand interface deck 1 energy check value iteration history trace: 2282.525207,2282.525207,2282.525206,2282.525206,2282.525206,2282.525206,2282.525206,2282.525206,2282.525205,2282.525205,
   ** Warning ** SimHVAC: Maximum iterations (20) exceeded for all HVAC loops, at ANNUAL, 03/08 10:15 - 10:30
   **   ~~~   ** The solution for one or more of the Air Loop HVAC systems did not appear to converge
   **   ~~~   ** Air System Named = CENTRAL SYSTEM did not converge for mass flow rate
   **   ~~~   ** Check values should be zero. Most Recent values listed first.
   **   ~~~   ** Demand-to-Supply interface mass flow rate check value iteration history trace: 6.850030E-002,6.850030E-002,6.850030E-002,6.850030E-002,6.850030E-002,6.850030E-002,6.850030E-002,6.850030E-002,6.850030E-002,6.850030E-002,
   **   ~~~   ** Supply-to-demand interface deck 1 mass flow rate check value iteration history trace: 6.850030E-002,6.850030E-002,6.850030E-002,6.850030E-002,6.850030E-002,6.850030E-002,6.850030E-002,6.850030E-002,6.850030E-002,6.850030E-002,
   **   ~~~   ** Air System Named = CENTRAL SYSTEM did not converge for energy
   **   ~~~   ** Check values should be zero. Most Recent values listed first.
   **   ~~~   ** Demand-to-Supply interface energy check value iteration history trace: 1356.512162,1356.512162,1356.512162,1356.512162,1356.512161,1356.512161,1356.512161,1356.512161,1356.512161,1356.512161,
   **   ~~~   ** Supply-to-demand interface deck 1 energy check value iteration history trace: 2206.202031,2206.202031,2206.202031,2206.202031,2206.202031,2206.202030,2206.202030,2206.202030,2206.202030,2206.202030,
   ** Warning ** SimHVAC: Maximum iterations (20) exceeded for all HVAC loops, at ANNUAL, 03/19 13:00 - 13:15
   **   ~~~   ** The solution for one or more of the Air Loop HVAC systems did not appear to converge
   **   ~~~   ** Air System Named = CENTRAL SYSTEM did not converge for mass flow rate
   **   ~~~   ** Check values should be zero. Most Recent values listed first.
   **   ~~~   ** Demand-to-Supply interface mass flow rate check value iteration history trace: 5.513968E-002,5.513968E-002,5.513968E-002,5.513968E-002,5.513968E-002,5.513968E-002,5.513968E-002,5.513968E-002,5.513968E-002,5.513968E-002,
   **   ~~~   ** Supply-to-demand interface deck 1 mass flow rate check value iteration history trace: 5.513968E-002,5.513968E-002,5.513968E-002,5.513968E-002,5.513968E-002,5.513968E-002,5.513968E-002,5.513968E-002,5.513968E-002,5.513968E-002,
   **   ~~~   ** Air System Named = CENTRAL SYSTEM did not converge for energy
   **   ~~~   ** Check values should be zero. Most Recent values listed first.
   **   ~~~   ** Demand-to-Supply interface energy check value iteration history trace: 1091.710944,1091.710943,1091.710943,1091.710943,1091.710943,1091.710943,1091.710943,1091.710943,1091.710943,1091.710943,
   **   ~~~   ** Supply-to-demand interface deck 1 energy check value iteration history trace: 1986.164881,1986.164881,1986.164881,1986.164881,1986.164881,1986.164881,1986.164881,1986.164881,1986.164880,1986.164880,
   ** Warning ** SimHVAC: Maximum iterations (20) exceeded for all HVAC loops, at ANNUAL, 03/26 16:00 - 16:08
   **   ~~~   ** The solution for one or more of the Air Loop HVAC systems did not appear to converge
   **   ~~~   ** Air System Named = CENTRAL SYSTEM did not converge for mass flow rate
   **   ~~~   ** Check values should be zero. Most Recent values listed first.
   **   ~~~   ** Demand-to-Supply interface mass flow rate check value iteration history trace: 5.261743E-002,5.261743E-002,5.261743E-002,5.261743E-002,5.261743E-002,5.261743E-002,5.261743E-002,5.261743E-002,5.261743E-002,5.261743E-002,
   **   ~~~   ** Supply-to-demand interface deck 1 mass flow rate check value iteration history trace: 5.261743E-002,5.261743E-002,5.261743E-002,5.261743E-002,5.261743E-002,5.261743E-002,5.261743E-002,5.261743E-002,5.261743E-002,5.261743E-002,
   **   ~~~   ** Air System Named = CENTRAL SYSTEM did not converge for energy
   **   ~~~   ** Check values should be zero. Most Recent values listed first.
   **   ~~~   ** Demand-to-Supply interface energy check value iteration history trace: 1024.617305,1024.617305,1024.617304,1024.617304,1024.617304,1024.617304,1024.617304,1024.617304,1024.617303,1024.617303,
   **   ~~~   ** Supply-to-demand interface deck 1 energy check value iteration history trace: 1947.339179,1947.339179,1947.339178,1947.339178,1947.339178,1947.339177,1947.339177,1947.339177,1947.339176,1947.339176,
   **   ~~~   ** Node named ZONE INLET NODE shows oscillating temperatures across iterations with a repeated value of 36.830992
   **   ~~~   ** Node named ZONE INLET NODE temperature [C] iteration history trace (most recent first): 36.830992,36.830992,36.830991,36.830991,36.830991,36.830990,36.830990,36.830990,36.830990,36.830989,
   ** Warning ** SimHVAC: Maximum iterations (20) exceeded for all HVAC loops, at ANNUAL, 04/04 12:00 - 12:15
   **   ~~~   ** The solution for one or more of the Air Loop HVAC systems did not appear to converge
   **   ~~~   ** Air System Named = CENTRAL SYSTEM did not converge for mass flow rate
   **   ~~~   ** Check values should be zero. Most Recent values listed first.
   **   ~~~   ** Demand-to-Supply interface mass flow rate check value iteration history trace: 5.031955E-002,5.031955E-002,5.031955E-002,5.031955E-002,5.031955E-002,5.031955E-002,5.031955E-002,5.031955E-002,5.031955E-002,5.031955E-002,
   **   ~~~   ** Supply-to-demand interface deck 1 mass flow rate check value iteration history trace: 5.031955E-002,5.031955E-002,5.031955E-002,5.031955E-002,5.031955E-002,5.031955E-002,5.031955E-002,5.031955E-002,5.031955E-002,5.031955E-002,
   **   ~~~   ** Air System Named = CENTRAL SYSTEM did not converge for energy
   **   ~~~   ** Check values should be zero. Most Recent values listed first.
   **   ~~~   ** Demand-to-Supply interface energy check value iteration history trace: 995.595094,995.595094,995.595094,995.595093,995.595093,995.595093,995.595093,995.595093,995.595093,995.595093,
   **   ~~~   ** Supply-to-demand interface deck 1 energy check value iteration history trace: 1841.981630,1841.981630,1841.981630,1841.981630,1841.981630,1841.981630,1841.981630,1841.981630,1841.981630,1841.981630,
   ** Warning ** SimHVAC: Maximum iterations (20) exceeded for all HVAC loops, at ANNUAL, 04/09 08:15 - 08:30
   **   ~~~   ** The solution for one or more of the Air Loop HVAC systems did not appear to converge
   **   ~~~   ** Air System Named = CENTRAL SYSTEM did not converge for mass flow rate
   **   ~~~   ** Check values should be zero. Most Recent values listed first.
   **   ~~~   ** Demand-to-Supply interface mass flow rate check value iteration history trace: 4.424599E-002,4.424599E-002,4.424599E-002,4.424599E-002,4.424599E-002,4.424599E-002,4.424599E-002,4.424599E-002,4.424599E-002,4.424599E-002,
   **   ~~~   ** Supply-to-demand interface deck 1 mass flow rate check value iteration history trace: 4.424599E-002,4.424599E-002,4.424599E-002,4.424599E-002,4.424599E-002,4.424599E-002,4.424599E-002,4.424599E-002,4.424599E-002,4.424599E-002,
   **   ~~~   ** Air System Named = CENTRAL SYSTEM did not converge for energy
   **   ~~~   ** Check values should be zero. Most Recent values listed first.
   **   ~~~   ** Demand-to-Supply interface energy check value iteration history trace: 876.740471,876.740471,876.740471,876.740471,876.740471,876.740471,876.740471,876.740471,876.740471,876.740471,
   **   ~~~   ** Supply-to-demand interface deck 1 energy check value iteration history trace: 1693.375664,1693.375664,1693.375664,1693.375664,1693.375663,1693.375663,1693.375663,1693.375663,1693.375663,1693.375663,
   ** Warning ** SimHVAC: Maximum iterations (20) exceeded for all HVAC loops, at ANNUAL, 04/16 09:00 - 09:15
   **   ~~~   ** The solution for one or more of the Air Loop HVAC systems did not appear to converge
   **   ~~~   ** Air System Named = CENTRAL SYSTEM did not converge for mass flow rate
   **   ~~~   ** Check values should be zero. Most Recent values listed first.
   **   ~~~   ** Demand-to-Supply interface mass flow rate check value iteration history trace: 3.361333E-002,3.361333E-002,3.361333E-002,3.361333E-002,3.361333E-002,3.361333E-002,3.361333E-002,3.361333E-002,3.361333E-002,3.361333E-002,
   **   ~~~   ** Supply-to-demand interface deck 1 mass flow rate check value iteration history trace: 3.361333E-002,3.361333E-002,3.361333E-002,3.361333E-002,3.361333E-002,3.361333E-002,3.361333E-002,3.361333E-002,3.361333E-002,3.361333E-002,
   **   ~~~   ** Air System Named = CENTRAL SYSTEM did not converge for energy
   **   ~~~   ** Check values should be zero. Most Recent values listed first.
   **   ~~~   ** Demand-to-Supply interface energy check value iteration history trace: 666.126962,666.126962,666.126962,666.126962,666.126962,666.126962,666.126962,666.126962,666.126962,666.126961,
   **   ~~~   ** Supply-to-demand interface deck 1 energy check value iteration history trace: 1120.383039,1120.383039,1120.383039,1120.383039,1120.383039,1120.383039,1120.383039,1120.383039,1120.383039,1120.383039,
   ** Warning ** SimHVAC: Maximum iterations (20) exceeded for all HVAC loops, at ANNUAL, 04/30 09:11 - 09:13
   **   ~~~   ** The solution for one or more of the Air Loop HVAC systems did not appear to converge
   **   ~~~   ** Air System Named = CENTRAL SYSTEM did not converge for mass flow rate
   **   ~~~   ** Check values should be zero. Most Recent values listed first.
   **   ~~~   ** Demand-to-Supply interface mass flow rate check value iteration history trace: 4.162329E-002,4.162329E-002,4.162329E-002,4.162329E-002,4.162329E-002,4.162329E-002,4.162329E-002,4.162329E-002,4.162329E-002,4.162329E-002,
   **   ~~~   ** Supply-to-demand interface deck 1 mass flow rate check value iteration history trace: 4.162329E-002,4.162329E-002,4.162329E-002,4.162329E-002,4.162329E-002,4.162329E-002,4.162329E-002,4.162329E-002,4.162329E-002,4.162329E-002,
   **   ~~~   ** Air System Named = CENTRAL SYSTEM did not converge for energy
   **   ~~~   ** Check values should be zero. Most Recent values listed first.
   **   ~~~   ** Demand-to-Supply interface energy check value iteration history trace: 823.191210,823.191210,823.191210,823.191210,823.191210,823.191210,823.191210,823.191210,823.191210,823.191210,
   **   ~~~   ** Supply-to-demand interface deck 1 energy check value iteration history trace: 1517.484437,1517.484437,1517.484437,1517.484437,1517.484437,1517.484437,1517.484437,1517.484437,1517.484437,1517.484437,
   ** Warning ** SimHVAC: Maximum iterations (20) exceeded for all HVAC loops, at ANNUAL, 05/01 09:30 - 09:38
   **   ~~~   ** The solution for one or more of the Air Loop HVAC systems did not appear to converge
   **   ~~~   ** Air System Named = CENTRAL SYSTEM did not converge for mass flow rate
   **   ~~~   ** Check values should be zero. Most Recent values listed first.
   **   ~~~   ** Demand-to-Supply interface mass flow rate check value iteration history trace: 4.092338E-002,4.092338E-002,4.092338E-002,4.092338E-002,4.092338E-002,4.092338E-002,4.092338E-002,4.092338E-002,4.092338E-002,4.092338E-002,
   **   ~~~   ** Supply-to-demand interface deck 1 mass flow rate check value iteration history trace: 4.092338E-002,4.092338E-002,4.092338E-002,4.092338E-002,4.092338E-002,4.092338E-002,4.092338E-002,4.092338E-002,4.092338E-002,4.092338E-002,
   **   ~~~   ** Air System Named = CENTRAL SYSTEM did not converge for energy
   **   ~~~   ** Check values should be zero. Most Recent values listed first.
   **   ~~~   ** Demand-to-Supply interface energy check value iteration history trace: 810.951674,810.951674,810.951674,810.951674,810.951674,810.951674,810.951674,810.951674,810.951674,810.951674,
   **   ~~~   ** Supply-to-demand interface deck 1 energy check value iteration history trace: 1574.821565,1574.821565,1574.821565,1574.821565,1574.821565,1574.821565,1574.821565,1574.821565,1574.821565,1574.821565,
   ** Warning ** SimHVAC: Maximum iterations (20) exceeded for all HVAC loops, at ANNUAL, 05/27 11:00 - 11:08
   **   ~~~   ** The solution for one or more of the Air Loop HVAC systems did not appear to converge
   **   ~~~   ** Air System Named = CENTRAL SYSTEM did not converge for mass flow rate
   **   ~~~   ** Check values should be zero. Most Recent values listed first.
   **   ~~~   ** Demand-to-Supply interface mass flow rate check value iteration history trace: 4.871355E-002,4.871355E-002,4.871355E-002,4.871355E-002,4.871355E-002,4.871355E-002,4.871355E-002,4.871355E-002,4.871355E-002,4.871355E-002,
   **   ~~~   ** Supply-to-demand interface deck 1 mass flow rate check value iteration history trace: 4.871355E-002,4.871355E-002,4.871355E-002,4.871355E-002,4.871355E-002,4.871355E-002,4.871355E-002,4.871355E-002,4.871355E-002,4.871355E-002,
   **   ~~~   ** Air System Named = CENTRAL SYSTEM did not converge for energy
   **   ~~~   ** Check values should be zero. Most Recent values listed first.
   **   ~~~   ** Demand-to-Supply interface energy check value iteration history trace: 959.919979,959.919979,959.919979,959.919979,959.919979,959.919979,959.919979,959.919979,959.919979,959.919979,
   **   ~~~   ** Supply-to-demand interface deck 1 energy check value iteration history trace: 1826.643768,1826.643768,1826.643768,1826.643768,1826.643767,1826.643767,1826.643767,1826.643767,1826.643767,1826.643767,
   ** Warning ** SimHVAC: Maximum iterations (20) exceeded for all HVAC loops, at ANNUAL, 06/06 06:45 - 07:00
   **   ~~~   ** The solution for one or more of the Air Loop HVAC systems did not appear to converge
   **   ~~~   ** Air System Named = CENTRAL SYSTEM did not converge for mass flow rate
   **   ~~~   ** Check values should be zero. Most Recent values listed first.
   **   ~~~   ** Demand-to-Supply interface mass flow rate check value iteration history trace: 5.398346E-002,5.398346E-002,5.398346E-002,5.398346E-002,5.398346E-002,5.398346E-002,5.398346E-002,5.398346E-002,5.398346E-002,5.398346E-002,
   **   ~~~   ** Supply-to-demand interface deck 1 mass flow rate check value iteration history trace: 5.398346E-002,5.398346E-002,5.398346E-002,5.398346E-002,5.398346E-002,5.398346E-002,5.398346E-002,5.398346E-002,5.398346E-002,5.398346E-002,
   **   ~~~   ** Air System Named = CENTRAL SYSTEM did not converge for energy
   **   ~~~   ** Check values should be zero. Most Recent values listed first.
   **   ~~~   ** Demand-to-Supply interface energy check value iteration history trace: 1069.692624,1069.692624,1069.692624,1069.692624,1069.692624,1069.692624,1069.692624,1069.692624,1069.692624,1069.692624,
   **   ~~~   ** Supply-to-demand interface deck 1 energy check value iteration history trace: 1958.910205,1958.910205,1958.910205,1958.910205,1958.910204,1958.910204,1958.910204,1958.910204,1958.910204,1958.910204,
   ** Warning ** SimHVAC: Maximum iterations (20) exceeded for all HVAC loops, at ANNUAL, 06/12 17:45 - 17:52
   **   ~~~   ** The solution for one or more of the Air Loop HVAC systems did not appear to converge
   **   ~~~   ** Air System Named = CENTRAL SYSTEM did not converge for mass flow rate
   **   ~~~   ** Check values should be zero. Most Recent values listed first.
   **   ~~~   ** Demand-to-Supply interface mass flow rate check value iteration history trace: 3.321477E-002,3.321477E-002,3.321477E-002,3.321477E-002,3.321477E-002,3.321477E-002,3.321477E-002,3.321477E-002,3.321477E-002,3.321477E-002,
   **   ~~~   ** Supply-to-demand interface deck 1 mass flow rate check value iteration history trace: 3.321477E-002,3.321477E-002,3.321477E-002,3.321477E-002,3.321477E-002,3.321477E-002,3.321477E-002,3.321477E-002,3.321477E-002,3.321477E-002,
   **   ~~~   ** Air System Named = CENTRAL SYSTEM did not converge for energy
   **   ~~~   ** Check values should be zero. Most Recent values listed first.
   **   ~~~   ** Demand-to-Supply interface energy check value iteration history trace: 646.603165,646.603165,646.603165,646.603165,646.603165,646.603165,646.603165,646.603165,646.603165,646.603165,
   **   ~~~   ** Supply-to-demand interface deck 1 energy check value iteration history trace: 1237.159435,1237.159435,1237.159435,1237.159435,1237.159435,1237.159435,1237.159435,1237.159435,1237.159435,1237.159435,
   ** Warning ** SimHVAC: Maximum iterations (20) exceeded for all HVAC loops, at ANNUAL, 06/23 23:30 - 23:45
   **   ~~~   ** The solution for one or more of the Air Loop HVAC systems did not appear to converge
   **   ~~~   ** Air System Named = CENTRAL SYSTEM did not converge for mass flow rate
   **   ~~~   ** Check values should be zero. Most Recent values listed first.
   **   ~~~   ** Demand-to-Supply interface mass flow rate check value iteration history trace: 4.161088E-002,4.161088E-002,4.161088E-002,4.161088E-002,4.161088E-002,4.161088E-002,4.161088E-002,4.161088E-002,4.161088E-002,4.161088E-002,
   **   ~~~   ** Supply-to-demand interface deck 1 mass flow rate check value iteration history trace: 4.161088E-002,4.161088E-002,4.161088E-002,4.161088E-002,4.161088E-002,4.161088E-002,4.161088E-002,4.161088E-002,4.161088E-002,4.161088E-002,
   **   ~~~   ** Air System Named = CENTRAL SYSTEM did not converge for energy
   **   ~~~   ** Check values should be zero. Most Recent values listed first.
   **   ~~~   ** Demand-to-Supply interface energy check value iteration history trace: 1028.557273,1028.557274,1028.557274,1028.557274,1028.557274,1028.557274,1028.557274,1028.557274,1028.557274,1028.557274,
   **   ~~~   ** Supply-to-demand interface deck 1 energy check value iteration history trace: 380.267802,380.267802,380.267802,380.267802,380.267802,380.267802,380.267802,380.267802,380.267802,380.267802,
   ************* Simulation Error Summary *************
   ** Warning ** The following Report Variables were requested but not generated -- check.rdd file
   **   ~~~   ** Either the IDF did not contain these elements, the variable name is misspelled,
   **   ~~~   ** or the requested variable is an advanced output which requires Output : Diagnostics, DisplayAdvancedReportVariables;
   ************* Key=*, VarName=BASEBOARD TOTAL HEATING ENERGY, Frequency=
   ************* Key=*, VarName=WATER HEATER NATURALGAS ENERGY, Frequency=
   ************* Key=*, VarName=COOLING COIL TOTAL HEATING ENERGY, Frequency=
   ************* There are 34 unused schedules in input.
   ************* There are 388 unused week schedules in input.
   ************* There are 396 unused day schedules in input.
   ************* Use Output:Diagnostics,DisplayUnusedSchedules; to see them.
   *************
   ************* ===== Recurring Error Summary =====
   ************* The following recurring error messages occurred.
   *************
   *************  ** Warning ** "TOTAL HOT WATER LOAD" - Target water temperature should be less than or equal to the hot water temperature error continues...
   *************  **   ~~~   **   This error occurred 60635 total times;
   *************  **   ~~~   **   during Warmup 0 times;
   *************  **   ~~~   **   during Sizing 0 times.
   *************  **   ~~~   **   Max=6.792734  Min=5.538047E-004
   *************
   *************  ** Warning ** SimHVAC: Exceeding Maximum iterations for all HVAC loops, during ANNUAL continues
   *************  **   ~~~   **   This error occurred 7 total times;
   *************  **   ~~~   **   during Warmup 0 times;
   *************  **   ~~~   **   during Sizing 0 times.
   *************
   *************
   ************* ===== Final Error Summary =====
   ************* The following error categories occurred.  Consider correcting or noting.
   ************* Nominally Unused Constructions
   ************* ..The nominally unused constructions warning is provided to alert you to potential conditions that can cause
   ************* ..extra time during simulation. Each construction is calculated by the algorithm indicated in the HeatBalanceAlgorithm
   ************* ..object. You may remove the constructions indicated (when you use the DisplayExtraWarnings option).
   *************
   ************* EnergyPlus Warmup Error Summary. During Warmup: 1 Warning; 0 Severe Errors.
   ************* EnergyPlus Sizing Error Summary. During Sizing: 4 Warning; 0 Severe Errors.
   ************* EnergyPlus Completed Successfully-- 60674 Warning; 0 Severe Errors; Elapsed Time=00hr 01min 35.65sec
