Program Version,EnergyPlus, Version 22.2.0-c249759bad, YMD=2023.09.01 20:06,
   ************* Beginning Zone Sizing Calculations
   ** Warning ** ProcessScheduleInput: Schedule:Constant="ALWAYS ON DISCRETE", Schedule Type Limits Name="ONOFF" not found -- will not be validated
   ** Warning ** Foundation:Kiva="KIVA FOUNDATION", no Interior Horizontal Insulation Material Name defined
   **   ~~~   ** Interior Horizontal Insulation Depth will not be used.
   ** Warning ** CheckUsedConstructions: There are 15 nominally unused constructions in input.
   **   ~~~   ** Each Unused construction is shown.
   ************* Construction=INTERIOR FLOOR
   ************* Construction=INTERIOR WINDOW
   ************* Construction=EXTERIOR DOOR
   ************* Construction=INTERIOR DOOR
   ************* Construction=GABLE CONSTRUCTION
   ************* Construction=CRAWL_FLOOR
   ************* Construction=INSULATED PIPE
   ************* Construction=PLAIN PIPE
   ************* Construction=TDD PIPE
   ************* Construction=TDD DOME
   ************* Construction=TDD DIFFUSER
   ************* Construction=CRAWL WALL
   ************* Construction=CEILING-FLOOR-LAYER
   ************* Construction=SLAB CONSTRUCTION W FULL R10 INSULATION
   ************* Construction=SLAB CONSTRUCTION W FULL R5 INSULATION
   ** Warning ** GetDXCoils: Coil:Heating:DX:SingleSpeed="DX_HEATING_COIL" curve values
   **   ~~~   ** ... Defrost Energy Input Ratio Function of Temperature Curve Name = DEFROSTEIR output is not equal to 1.0 (+ or - 10%) at rated conditions.
   **   ~~~   ** ... Curve output at rated conditions = 0.152
   ************* Beginning System Sizing Calculations
   ************* Beginning Plant Sizing Calculations
   ** Warning ** SizeDXCoil Coil:Cooling:DX:SingleSpeed DX_COOLING_COIL
   **   ~~~   ** ...Gross Rated Total Cooling Capacity [W] will be limited by the maximum rated volume flow per rated total capacity ratio.
   **   ~~~   ** ...DX coil volume flow rate ( m3/s ) = 0.435938
   **   ~~~   ** ...Requested capacity ( W ) = 7033.362
   **   ~~~   ** ...Requested flow/capacity ratio ( m3/s/W ) = 6.198E-005
   **   ~~~   ** ...Maximum flow/capacity ratio ( m3/s/W ) = 6.041E-005
   **   ~~~   ** ...Adjusted capacity ( W ) = 7216.324
   ** Warning ** Coil:WaterHeating:AirToWaterHeatPump:Wrapped "HEAT PUMP WATER HEATER EVAPORATOR": Rated air volume flow rate per watt of rated total water heating capacity is out of range
   **   ~~~   ** Min Rated Vol Flow Per Watt=[4.027E-005], Rated Vol Flow Per Watt=[1.510E-004], Max Rated Vol Flow Per Watt=[8.056E-005]. See Input-Output Reference Manual for valid range.
   ************* SizeFan: : Potential issue with equipment sizing for Fan:OnOff HEAT PUMP WATER HEATER FAN
   **   ~~~   ** User-Specified Maximum Flow Rate [m3/s] = 0.22653
   **   ~~~   ** differs from Design Size Maximum Flow Rate [m3/s] = 7.55250E-002
   **   ~~~   ** This may, or may not, indicate mismatched component sizes.
   **   ~~~   ** Verify that the value entered is intended and is consistent with other components.
   ** Warning ** Water heater = WATER HEATER TANK:  Recovery Efficiency and Energy Factor could not be calculated during the test for standard ratings
   **   ~~~   ** Setpoint was never recovered and/or heater never turned on
   ** Warning ** Check input. Pump nominal power or motor efficiency is set to 0, for pump=MAINS PRESSURE
   ** Warning ** Output:Meter: invalid Key Name="ELECTRIC_RANGE:INTERIOREQUIPMENT:ELECTRICITY" - not found.
   ** Warning ** Output:Meter: invalid Key Name="ELECTRIC_DRYER:INTERIOREQUIPMENT:ELECTRICITY" - not found.
   ** Warning ** Output:Meter: invalid Key Name="HEATRECOVERY:ELECTRICITY" - not found.
   ** Warning ** Output:Meter: invalid Key Name="HEATING:NATURALGAS" - not found.
   ** Warning ** Output:Meter: invalid Key Name="WATERSYSTEMS:NATURALGAS" - not found.
   ** Warning ** Output:Meter: invalid Key Name="PROPANE:FACILITY" - not found.
   ** Warning ** Output:Meter: invalid Key Name="HEATING:PROPANE" - not found.
   ************* Testing Individual Branch Integrity
   ************* All Branches passed integrity testing
   ************* Testing Individual Supply Air Path Integrity
   ************* All Supply Air Paths passed integrity testing
   ************* Testing Individual Return Air Path Integrity
   ************* All Return Air Paths passed integrity testing
   ************* No node connection errors were found.
   ************* Beginning Simulation
   ** Warning ** AirflowNetwork::Solver::validate_distribution: Heat pump water heater is simulated along with an AirflowNetwork but is not included in the AirflowNetwork.
   ** Warning ** CalcEquipmentFlowRates: "TOTAL HOT WATER LOAD" - Target water temperature is greater than the hot water temperature by (4.37 C)
   **   ~~~   **  Environment=EXTREME_WINTER, at Simulation time=12/15 07:00 - 07:15
   **   ~~~   ** ...target water temperature     = 53.33 C
   **   ~~~   ** ...hot water temperature        = 48.96 C
   **   ~~~   ** ...Target water temperature should be less than or equal to the hot water temperature. Verify temperature setpoints and schedules.
   ** Warning ** SimHVAC: Maximum iterations (20) exceeded for all HVAC loops, at ANNUAL, 01/28 11:45 - 11:52
   **   ~~~   ** The solution for one or more of the Air Loop HVAC systems did not appear to converge
   **   ~~~   ** Air System Named = CENTRAL SYSTEM did not converge for mass flow rate
   **   ~~~   ** Check values should be zero. Most Recent values listed first.
   **   ~~~   ** Demand-to-Supply interface mass flow rate check value iteration history trace: 8.273698E-002,8.273698E-002,8.273698E-002,8.273698E-002,8.273698E-002,8.273698E-002,8.273698E-002,8.273698E-002,8.273698E-002,8.273698E-002,
   **   ~~~   ** Supply-to-demand interface deck 1 mass flow rate check value iteration history trace: 8.273698E-002,8.273698E-002,8.273698E-002,8.273698E-002,8.273698E-002,8.273698E-002,8.273698E-002,8.273698E-002,8.273698E-002,8.273698E-002,
   **   ~~~   ** Air System Named = CENTRAL SYSTEM did not converge for energy
   **   ~~~   ** Check values should be zero. Most Recent values listed first.
   **   ~~~   ** Demand-to-Supply interface energy check value iteration history trace: 1636.486629,1636.486629,1636.486629,1636.486629,1636.486629,1636.486629,1636.486629,1636.486629,1636.486629,1636.486628,
   **   ~~~   ** Supply-to-demand interface deck 1 energy check value iteration history trace: 2545.669265,2545.669264,2545.669264,2545.669264,2545.669264,2545.669264,2545.669264,2545.669264,2545.669263,2545.669263,
   ** Warning ** SimHVAC: Maximum iterations (20) exceeded for all HVAC loops, at ANNUAL, 02/11 22:10 - 22:15
   **   ~~~   ** The solution for one or more of the Air Loop HVAC systems did not appear to converge
   **   ~~~   ** Air System Named = CENTRAL SYSTEM did not converge for mass flow rate
   **   ~~~   ** Check values should be zero. Most Recent values listed first.
   **   ~~~   ** Demand-to-Supply interface mass flow rate check value iteration history trace: 0.100626,0.100626,0.100626,0.100626,0.100626,0.100626,0.100626,0.100626,0.100626,0.100626,
   **   ~~~   ** Supply-to-demand interface deck 1 mass flow rate check value iteration history trace: 0.100626,0.100626,0.100626,0.100626,0.100626,0.100626,0.100626,0.100626,0.100626,0.100626,
   **   ~~~   ** Air System Named = CENTRAL SYSTEM did not converge for energy
   **   ~~~   ** Check values should be zero. Most Recent values listed first.
   **   ~~~   ** Demand-to-Supply interface energy check value iteration history trace: 1903.827994,1903.827994,1903.827994,1903.827994,1903.827994,1903.827994,1903.827994,1903.827994,1903.827994,1903.827994,
   **   ~~~   ** Supply-to-demand interface deck 1 energy check value iteration history trace: 2923.402344,2923.402344,2923.402344,2923.402344,2923.402343,2923.402343,2923.402343,2923.402343,2923.402343,2923.402343,
   ** Warning ** SimHVAC: Maximum iterations (20) exceeded for all HVAC loops, at ANNUAL, 02/12 11:00 - 11:15
   **   ~~~   ** The solution for one or more of the Air Loop HVAC systems did not appear to converge
   **   ~~~   ** Air System Named = CENTRAL SYSTEM did not converge for mass flow rate
   **   ~~~   ** Check values should be zero. Most Recent values listed first.
   **   ~~~   ** Demand-to-Supply interface mass flow rate check value iteration history trace: 9.337434E-002,9.337434E-002,9.337434E-002,9.337434E-002,9.337434E-002,9.337434E-002,9.337434E-002,9.337434E-002,9.337434E-002,9.337434E-002,
   **   ~~~   ** Supply-to-demand interface deck 1 mass flow rate check value iteration history trace: 9.337434E-002,9.337434E-002,9.337434E-002,9.337434E-002,9.337434E-002,9.337434E-002,9.337434E-002,9.337434E-002,9.337434E-002,9.337434E-002,
   **   ~~~   ** Air System Named = CENTRAL SYSTEM did not converge for energy
   **   ~~~   ** Check values should be zero. Most Recent values listed first.
   **   ~~~   ** Demand-to-Supply interface energy check value iteration history trace: 1850.051757,1850.051757,1850.051757,1850.051757,1850.051757,1850.051757,1850.051757,1850.051757,1850.051757,1850.051756,
   **   ~~~   ** Supply-to-demand interface deck 1 energy check value iteration history trace: 2938.450010,2938.450009,2938.450009,2938.450009,2938.450009,2938.450009,2938.450009,2938.450008,2938.450008,2938.450008,
   ** Warning ** SimHVAC: Maximum iterations (20) exceeded for all HVAC loops, at ANNUAL, 02/14 11:05 - 11:08
   **   ~~~   ** The solution for one or more of the Air Loop HVAC systems did not appear to converge
   **   ~~~   ** Air System Named = CENTRAL SYSTEM did not converge for mass flow rate
   **   ~~~   ** Check values should be zero. Most Recent values listed first.
   **   ~~~   ** Demand-to-Supply interface mass flow rate check value iteration history trace: 8.397053E-002,8.397053E-002,8.397053E-002,8.397053E-002,8.397053E-002,8.397053E-002,8.397053E-002,8.397053E-002,8.397053E-002,8.397053E-002,
   **   ~~~   ** Supply-to-demand interface deck 1 mass flow rate check value iteration history trace: 8.397053E-002,8.397053E-002,8.397053E-002,8.397053E-002,8.397053E-002,8.397053E-002,8.397053E-002,8.397053E-002,8.397053E-002,8.397053E-002,
   **   ~~~   ** Air System Named = CENTRAL SYSTEM did not converge for energy
   **   ~~~   ** Check values should be zero. Most Recent values listed first.
   **   ~~~   ** Demand-to-Supply interface energy check value iteration history trace: 1658.238920,1658.238920,1658.238920,1658.238920,1658.238920,1658.238920,1658.238920,1658.238920,1658.238920,1658.238919,
   **   ~~~   ** Supply-to-demand interface deck 1 energy check value iteration history trace: 2794.427508,2794.427508,2794.427508,2794.427507,2794.427507,2794.427507,2794.427507,2794.427507,2794.427507,2794.427507,
   ** Warning ** SimHVAC: Maximum iterations (20) exceeded for all HVAC loops, at ANNUAL, 02/14 11:21 - 11:24
   **   ~~~   ** The solution for one or more of the Air Loop HVAC systems did not appear to converge
   **   ~~~   ** Air System Named = CENTRAL SYSTEM did not converge for mass flow rate
   **   ~~~   ** Check values should be zero. Most Recent values listed first.
   **   ~~~   ** Demand-to-Supply interface mass flow rate check value iteration history trace: 8.233584E-002,8.233584E-002,8.233584E-002,8.233584E-002,8.233584E-002,8.233584E-002,8.233584E-002,8.233584E-002,8.233584E-002,8.233584E-002,
   **   ~~~   ** Supply-to-demand interface deck 1 mass flow rate check value iteration history trace: 8.233584E-002,8.233584E-002,8.233584E-002,8.233584E-002,8.233584E-002,8.233584E-002,8.233584E-002,8.233584E-002,8.233584E-002,8.233584E-002,
   **   ~~~   ** Air System Named = CENTRAL SYSTEM did not converge for energy
   **   ~~~   ** Check values should be zero. Most Recent values listed first.
   **   ~~~   ** Demand-to-Supply interface energy check value iteration history trace: 1621.397521,1621.397521,1621.397521,1621.397520,1621.397520,1621.397520,1621.397520,1621.397520,1621.397520,1621.397520,
   **   ~~~   ** Supply-to-demand interface deck 1 energy check value iteration history trace: 2743.398894,2743.398894,2743.398894,2743.398894,2743.398894,2743.398894,2743.398894,2743.398893,2743.398893,2743.398893,
   ** Warning ** SimHVAC: Maximum iterations (20) exceeded for all HVAC loops, at ANNUAL, 03/05 10:57 - 11:00
   **   ~~~   ** The solution for one or more of the Air Loop HVAC systems did not appear to converge
   **   ~~~   ** Air System Named = CENTRAL SYSTEM did not converge for mass flow rate
   **   ~~~   ** Check values should be zero. Most Recent values listed first.
   **   ~~~   ** Demand-to-Supply interface mass flow rate check value iteration history trace: 6.437319E-002,6.437319E-002,6.437319E-002,6.437319E-002,6.437319E-002,6.437319E-002,6.437319E-002,6.437319E-002,6.437319E-002,6.437319E-002,
   **   ~~~   ** Supply-to-demand interface deck 1 mass flow rate check value iteration history trace: 6.437319E-002,6.437319E-002,6.437319E-002,6.437319E-002,6.437319E-002,6.437319E-002,6.437319E-002,6.437319E-002,6.437319E-002,6.437319E-002,
   **   ~~~   ** Air System Named = CENTRAL SYSTEM did not converge for energy
   **   ~~~   ** Check values should be zero. Most Recent values listed first.
   **   ~~~   ** Demand-to-Supply interface energy check value iteration history trace: 1267.015305,1267.015305,1267.015305,1267.015305,1267.015305,1267.015305,1267.015305,1267.015305,1267.015305,1267.015305,
   **   ~~~   ** Supply-to-demand interface deck 1 energy check value iteration history trace: 2262.415296,2262.415296,2262.415296,2262.415296,2262.415296,2262.415296,2262.415296,2262.415296,2262.415296,2262.415296,
   ** Warning ** SimHVAC: Maximum iterations (20) exceeded for all HVAC loops, at ANNUAL, 03/16 08:33 - 08:36
   **   ~~~   ** The solution for one or more of the Air Loop HVAC systems did not appear to converge
   **   ~~~   ** Air System Named = CENTRAL SYSTEM did not converge for mass flow rate
   **   ~~~   ** Check values should be zero. Most Recent values listed first.
   **   ~~~   ** Demand-to-Supply interface mass flow rate check value iteration history trace: 6.950966E-002,6.950966E-002,6.950966E-002,6.950966E-002,6.950966E-002,6.950966E-002,6.950966E-002,6.950966E-002,6.950966E-002,6.950966E-002,
   **   ~~~   ** Supply-to-demand interface deck 1 mass flow rate check value iteration history trace: 6.950966E-002,6.950966E-002,6.950966E-002,6.950966E-002,6.950966E-002,6.950966E-002,6.950966E-002,6.950966E-002,6.950966E-002,6.950966E-002,
   **   ~~~   ** Air System Named = CENTRAL SYSTEM did not converge for energy
   **   ~~~   ** Check values should be zero. Most Recent values listed first.
   **   ~~~   ** Demand-to-Supply interface energy check value iteration history trace: 1377.716120,1377.716120,1377.716120,1377.716120,1377.716119,1377.716119,1377.716119,1377.716119,1377.716119,1377.716119,
   **   ~~~   ** Supply-to-demand interface deck 1 energy check value iteration history trace: 2329.661275,2329.661274,2329.661274,2329.661274,2329.661274,2329.661274,2329.661274,2329.661274,2329.661274,2329.661274,
   ** Warning ** SimHVAC: Maximum iterations (20) exceeded for all HVAC loops, at ANNUAL, 03/16 09:15 - 09:17
   **   ~~~   ** The solution for one or more of the Air Loop HVAC systems did not appear to converge
   **   ~~~   ** Air System Named = CENTRAL SYSTEM did not converge for mass flow rate
   **   ~~~   ** Check values should be zero. Most Recent values listed first.
   **   ~~~   ** Demand-to-Supply interface mass flow rate check value iteration history trace: 7.222198E-002,7.222198E-002,7.222198E-002,7.222198E-002,7.222198E-002,7.222198E-002,7.222198E-002,7.222198E-002,7.222198E-002,7.222198E-002,
   **   ~~~   ** Supply-to-demand interface deck 1 mass flow rate check value iteration history trace: 7.222198E-002,7.222198E-002,7.222198E-002,7.222198E-002,7.222198E-002,7.222198E-002,7.222198E-002,7.222198E-002,7.222198E-002,7.222198E-002,
   **   ~~~   ** Air System Named = CENTRAL SYSTEM did not converge for energy
   **   ~~~   ** Check values should be zero. Most Recent values listed first.
   **   ~~~   ** Demand-to-Supply interface energy check value iteration history trace: 1426.296313,1426.296313,1426.296313,1426.296313,1426.296313,1426.296312,1426.296312,1426.296312,1426.296312,1426.296312,
   **   ~~~   ** Supply-to-demand interface deck 1 energy check value iteration history trace: 2478.062421,2478.062421,2478.062421,2478.062421,2478.062421,2478.062420,2478.062420,2478.062420,2478.062420,2478.062420,
   ** Warning ** SimHVAC: Maximum iterations (20) exceeded for all HVAC loops, at ANNUAL, 03/21 08:30 - 08:32
   **   ~~~   ** The solution for one or more of the Air Loop HVAC systems did not appear to converge
   **   ~~~   ** Air System Named = CENTRAL SYSTEM did not converge for mass flow rate
   **   ~~~   ** Check values should be zero. Most Recent values listed first.
   **   ~~~   ** Demand-to-Supply interface mass flow rate check value iteration history trace: 7.165724E-002,7.165724E-002,7.165724E-002,7.165724E-002,7.165724E-002,7.165724E-002,7.165724E-002,7.165724E-002,7.165724E-002,7.165724E-002,
   **   ~~~   ** Supply-to-demand interface deck 1 mass flow rate check value iteration history trace: 7.165724E-002,7.165724E-002,7.165724E-002,7.165724E-002,7.165724E-002,7.165724E-002,7.165724E-002,7.165724E-002,7.165724E-002,7.165724E-002,
   **   ~~~   ** Air System Named = CENTRAL SYSTEM did not converge for energy
   **   ~~~   ** Check values should be zero. Most Recent values listed first.
   **   ~~~   ** Demand-to-Supply interface energy check value iteration history trace: 1420.065660,1420.065660,1420.065660,1420.065660,1420.065660,1420.065660,1420.065660,1420.065660,1420.065660,1420.065660,
   **   ~~~   ** Supply-to-demand interface deck 1 energy check value iteration history trace: 2479.803810,2479.803809,2479.803809,2479.803809,2479.803809,2479.803809,2479.803809,2479.803809,2479.803809,2479.803809,
   ** Warning ** SimHVAC: Maximum iterations (20) exceeded for all HVAC loops, at ANNUAL, 03/26 21:00 - 21:15
   **   ~~~   ** The solution for one or more of the Air Loop HVAC systems did not appear to converge
   **   ~~~   ** Air System Named = CENTRAL SYSTEM did not converge for mass flow rate
   **   ~~~   ** Check values should be zero. Most Recent values listed first.
   **   ~~~   ** Demand-to-Supply interface mass flow rate check value iteration history trace: 0.108892,0.108892,0.108892,0.108892,0.108892,0.108892,0.108892,0.108892,0.108892,0.108892,
   **   ~~~   ** Supply-to-demand interface deck 1 mass flow rate check value iteration history trace: 0.108892,0.108892,0.108892,0.108892,0.108892,0.108892,0.108892,0.108892,0.108892,0.108892,
   **   ~~~   ** Air System Named = CENTRAL SYSTEM did not converge for energy
   **   ~~~   ** Check values should be zero. Most Recent values listed first.
   **   ~~~   ** Demand-to-Supply interface energy check value iteration history trace: 2158.212437,2158.212437,2158.212437,2158.212436,2158.212436,2158.212436,2158.212436,2158.212436,2158.212436,2158.212435,
   **   ~~~   ** Supply-to-demand interface deck 1 energy check value iteration history trace: 3280.501753,3280.501753,3280.501753,3280.501753,3280.501752,3280.501752,3280.501752,3280.501752,3280.501752,3280.501751,
   ** Warning ** SimHVAC: Maximum iterations (20) exceeded for all HVAC loops, at ANNUAL, 04/02 22:30 - 22:45
   **   ~~~   ** The solution for one or more of the Air Loop HVAC systems did not appear to converge
   **   ~~~   ** Air System Named = CENTRAL SYSTEM did not converge for mass flow rate
   **   ~~~   ** Check values should be zero. Most Recent values listed first.
   **   ~~~   ** Demand-to-Supply interface mass flow rate check value iteration history trace: 6.476597E-002,6.476597E-002,6.476597E-002,6.476597E-002,6.476597E-002,6.476597E-002,6.476597E-002,6.476597E-002,6.476597E-002,6.476597E-002,
   **   ~~~   ** Supply-to-demand interface deck 1 mass flow rate check value iteration history trace: 6.476597E-002,6.476597E-002,6.476597E-002,6.476597E-002,6.476597E-002,6.476597E-002,6.476597E-002,6.476597E-002,6.476597E-002,6.476597E-002,
   **   ~~~   ** Air System Named = CENTRAL SYSTEM did not converge for energy
   **   ~~~   ** Check values should be zero. Most Recent values listed first.
   **   ~~~   ** Demand-to-Supply interface energy check value iteration history trace: 1210.492427,1210.492427,1210.492427,1210.492427,1210.492427,1210.492427,1210.492427,1210.492427,1210.492427,1210.492427,
   **   ~~~   ** Supply-to-demand interface deck 1 energy check value iteration history trace: 2098.439106,2098.439106,2098.439105,2098.439105,2098.439105,2098.439105,2098.439105,2098.439105,2098.439105,2098.439105,
   ** Warning ** SimHVAC: Maximum iterations (20) exceeded for all HVAC loops, at ANNUAL, 04/15 11:27 - 11:30
   **   ~~~   ** The solution for one or more of the Air Loop HVAC systems did not appear to converge
   **   ~~~   ** Air System Named = CENTRAL SYSTEM did not converge for mass flow rate
   **   ~~~   ** Check values should be zero. Most Recent values listed first.
   **   ~~~   ** Demand-to-Supply interface mass flow rate check value iteration history trace: 7.539432E-002,7.539432E-002,7.539432E-002,7.539432E-002,7.539432E-002,7.539432E-002,7.539432E-002,7.539432E-002,7.539432E-002,7.539432E-002,
   **   ~~~   ** Supply-to-demand interface deck 1 mass flow rate check value iteration history trace: 7.539432E-002,7.539432E-002,7.539432E-002,7.539432E-002,7.539432E-002,7.539432E-002,7.539432E-002,7.539432E-002,7.539432E-002,7.539432E-002,
   **   ~~~   ** Air System Named = CENTRAL SYSTEM did not converge for energy
   **   ~~~   ** Check values should be zero. Most Recent values listed first.
   **   ~~~   ** Demand-to-Supply interface energy check value iteration history trace: 1489.832112,1489.832112,1489.832112,1489.832112,1489.832112,1489.832112,1489.832112,1489.832111,1489.832111,1489.832111,
   **   ~~~   ** Supply-to-demand interface deck 1 energy check value iteration history trace: 2363.107816,2363.107816,2363.107815,2363.107815,2363.107815,2363.107815,2363.107815,2363.107815,2363.107814,2363.107814,
   ** Warning ** SimHVAC: Maximum iterations (20) exceeded for all HVAC loops, at ANNUAL, 05/12 21:15 - 21:30
   **   ~~~   ** The solution for one or more of the Air Loop HVAC systems did not appear to converge
   **   ~~~   ** Air System Named = CENTRAL SYSTEM did not converge for mass flow rate
   **   ~~~   ** Check values should be zero. Most Recent values listed first.
   **   ~~~   ** Demand-to-Supply interface mass flow rate check value iteration history trace: 5.874147E-002,5.874147E-002,5.874147E-002,5.874147E-002,5.874147E-002,5.874147E-002,5.874147E-002,5.874147E-002,5.874147E-002,5.874147E-002,
   **   ~~~   ** Supply-to-demand interface deck 1 mass flow rate check value iteration history trace: 5.874147E-002,5.874147E-002,5.874147E-002,5.874147E-002,5.874147E-002,5.874147E-002,5.874147E-002,5.874147E-002,5.874147E-002,5.874147E-002,
   **   ~~~   ** Air System Named = CENTRAL SYSTEM did not converge for energy
   **   ~~~   ** Check values should be zero. Most Recent values listed first.
   **   ~~~   ** Demand-to-Supply interface energy check value iteration history trace: 1141.115649,1141.115649,1141.115649,1141.115649,1141.115649,1141.115649,1141.115649,1141.115649,1141.115649,1141.115649,
   **   ~~~   ** Supply-to-demand interface deck 1 energy check value iteration history trace: 2002.907878,2002.907878,2002.907878,2002.907878,2002.907878,2002.907878,2002.907878,2002.907878,2002.907878,2002.907878,
   ** Warning ** SimHVAC: Maximum iterations (20) exceeded for all HVAC loops, at ANNUAL, 05/24 06:45 - 07:00
   **   ~~~   ** The solution for one or more of the Air Loop HVAC systems did not appear to converge
   **   ~~~   ** Air System Named = CENTRAL SYSTEM did not converge for mass flow rate
   **   ~~~   ** Check values should be zero. Most Recent values listed first.
   **   ~~~   ** Demand-to-Supply interface mass flow rate check value iteration history trace: 8.016472E-002,8.016472E-002,8.016472E-002,8.016472E-002,8.016472E-002,8.016472E-002,8.016472E-002,8.016472E-002,8.016472E-002,8.016472E-002,
   **   ~~~   ** Supply-to-demand interface deck 1 mass flow rate check value iteration history trace: 8.016472E-002,8.016472E-002,8.016472E-002,8.016472E-002,8.016472E-002,8.016472E-002,8.016472E-002,8.016472E-002,8.016472E-002,8.016472E-002,
   **   ~~~   ** Air System Named = CENTRAL SYSTEM did not converge for energy
   **   ~~~   ** Check values should be zero. Most Recent values listed first.
   **   ~~~   ** Demand-to-Supply interface energy check value iteration history trace: 1891.205311,1891.205312,1891.205312,1891.205313,1891.205313,1891.205314,1891.205314,1891.205315,1891.205315,1891.205316,
   **   ~~~   ** Supply-to-demand interface deck 1 energy check value iteration history trace: 1026.511202,1026.511203,1026.511203,1026.511203,1026.511203,1026.511204,1026.511204,1026.511204,1026.511204,1026.511205,
   ************* Simulation Error Summary *************
   ** Warning ** The following Report Variables were requested but not generated -- check.rdd file
   **   ~~~   ** Either the IDF did not contain these elements, the variable name is misspelled,
   **   ~~~   ** or the requested variable is an advanced output which requires Output : Diagnostics, DisplayAdvancedReportVariables;
   ************* Key=*, VarName=BASEBOARD TOTAL HEATING ENERGY, Frequency=
   ************* Key=*, VarName=WATER HEATER NATURALGAS ENERGY, Frequency=
   ************* Key=*, VarName=COOLING COIL TOTAL HEATING ENERGY, Frequency=
   ************* There are 34 unused schedules in input.
   ************* There are 388 unused week schedules in input.
   ************* There are 396 unused day schedules in input.
   ************* Use Output:Diagnostics,DisplayUnusedSchedules; to see them.
   *************
   ************* ===== Recurring Error Summary =====
   ************* The following recurring error messages occurred.
   *************
   *************  ** Warning ** "TOTAL HOT WATER LOAD" - Target water temperature should be less than or equal to the hot water temperature error continues...
   *************  **   ~~~   **   This error occurred 164753 total times;
   *************  **   ~~~   **   during Warmup 0 times;
   *************  **   ~~~   **   during Sizing 0 times.
   *************  **   ~~~   **   Max=13.798742  Min=1.725186E-003
   *************
   *************  ** Warning ** SimHVAC: Exceeding Maximum iterations for all HVAC loops, during ANNUAL continues
   *************  **   ~~~   **   This error occurred 4 total times;
   *************  **   ~~~   **   during Warmup 0 times;
   *************  **   ~~~   **   during Sizing 0 times.
   *************
   *************
   ************* ===== Final Error Summary =====
   ************* The following error categories occurred.  Consider correcting or noting.
   ************* Nominally Unused Constructions
   ************* ..The nominally unused constructions warning is provided to alert you to potential conditions that can cause
   ************* ..extra time during simulation. Each construction is calculated by the algorithm indicated in the HeatBalanceAlgorithm
   ************* ..object. You may remove the constructions indicated (when you use the DisplayExtraWarnings option).
   *************
   ************* EnergyPlus Warmup Error Summary. During Warmup: 1 Warning; 0 Severe Errors.
   ************* EnergyPlus Sizing Error Summary. During Sizing: 4 Warning; 0 Severe Errors.
   ************* EnergyPlus Completed Successfully-- 164789 Warning; 0 Severe Errors; Elapsed Time=00hr 01min 40.96sec
