Program Version,EnergyPlus, Version 22.2.0-c249759bad, YMD=2023.09.01 19:29,
   ************* Beginning Zone Sizing Calculations
   ** Warning ** ProcessScheduleInput: Schedule:Constant="ALWAYS ON DISCRETE", Schedule Type Limits Name="ONOFF" not found -- will not be validated
   ** Warning ** Foundation:Kiva="KIVA FOUNDATION", no Interior Horizontal Insulation Material Name defined
   **   ~~~   ** Interior Horizontal Insulation Depth will not be used.
   ** Warning ** CheckUsedConstructions: There are 15 nominally unused constructions in input.
   **   ~~~   ** Each Unused construction is shown.
   ************* Construction=INTERIOR FLOOR
   ************* Construction=INTERIOR WINDOW
   ************* Construction=EXTERIOR DOOR
   ************* Construction=INTERIOR DOOR
   ************* Construction=GABLE CONSTRUCTION
   ************* Construction=CRAWL_FLOOR
   ************* Construction=INSULATED PIPE
   ************* Construction=PLAIN PIPE
   ************* Construction=TDD PIPE
   ************* Construction=TDD DOME
   ************* Construction=TDD DIFFUSER
   ************* Construction=CRAWL WALL
   ************* Construction=CEILING-FLOOR-LAYER
   ************* Construction=SLAB CONSTRUCTION W FULL R10 INSULATION
   ************* Construction=SLAB CONSTRUCTION W FULL R5 INSULATION
   ** Warning ** GetDXCoils: Coil:Heating:DX:SingleSpeed="DX_HEATING_COIL" curve values
   **   ~~~   ** ... Defrost Energy Input Ratio Function of Temperature Curve Name = DEFROSTEIR output is not equal to 1.0 (+ or - 10%) at rated conditions.
   **   ~~~   ** ... Curve output at rated conditions = 0.152
   ************* Beginning System Sizing Calculations
   ************* Beginning Plant Sizing Calculations
   ** Warning ** SizeDXCoil Coil:Cooling:DX:SingleSpeed DX_COOLING_COIL
   **   ~~~   ** ...Gross Rated Total Cooling Capacity [W] will be limited by the maximum rated volume flow per rated total capacity ratio.
   **   ~~~   ** ...DX coil volume flow rate ( m3/s ) = 0.290177
   **   ~~~   ** ...Requested capacity ( W ) = 4258.861
   **   ~~~   ** ...Requested flow/capacity ratio ( m3/s/W ) = 6.813E-005
   **   ~~~   ** ...Maximum flow/capacity ratio ( m3/s/W ) = 6.041E-005
   **   ~~~   ** ...Adjusted capacity ( W ) = 4803.470
   ** Warning ** SizeDXCoil Coil:Heating:DX:SingleSpeed DX_HEATING_COIL
   **   ~~~   ** ...Gross Rated Heating Capacity [W] will be limited by the maximum rated volume flow per rated total capacity ratio.
   **   ~~~   ** ...DX coil volume flow rate ( m3/s ) = 0.290177
   **   ~~~   ** ...Requested capacity ( W ) = 4803.470
   **   ~~~   ** ...Requested flow/capacity ratio ( m3/s/W ) = 6.041E-005
   **   ~~~   ** ...Maximum flow/capacity ratio ( m3/s/W ) = 6.041E-005
   **   ~~~   ** ...Adjusted capacity ( W ) = 4803.470
   ** Warning ** Coil:WaterHeating:AirToWaterHeatPump:Wrapped "HEAT PUMP WATER HEATER EVAPORATOR": Rated air volume flow rate per watt of rated total water heating capacity is out of range
   **   ~~~   ** Min Rated Vol Flow Per Watt=[4.027E-005], Rated Vol Flow Per Watt=[1.510E-004], Max Rated Vol Flow Per Watt=[8.056E-005]. See Input-Output Reference Manual for valid range.
   ************* SizeFan: : Potential issue with equipment sizing for Fan:OnOff HEAT PUMP WATER HEATER FAN
   **   ~~~   ** User-Specified Maximum Flow Rate [m3/s] = 0.22653
   **   ~~~   ** differs from Design Size Maximum Flow Rate [m3/s] = 7.55250E-002
   **   ~~~   ** This may, or may not, indicate mismatched component sizes.
   **   ~~~   ** Verify that the value entered is intended and is consistent with other components.
   ** Warning ** Water heater = WATER HEATER TANK:  Recovery Efficiency and Energy Factor could not be calculated during the test for standard ratings
   **   ~~~   ** Setpoint was never recovered and/or heater never turned on
   ** Warning ** Check input. Pump nominal power or motor efficiency is set to 0, for pump=MAINS PRESSURE
   ** Warning ** AirflowNetwork::Solver::validate_distribution: Heat pump water heater is simulated along with an AirflowNetwork but is not included in the AirflowNetwork.
   ** Warning ** Output:Meter: invalid Key Name="ELECTRIC_RANGE:INTERIOREQUIPMENT:ELECTRICITY" - not found.
   ** Warning ** Output:Meter: invalid Key Name="ELECTRIC_DRYER:INTERIOREQUIPMENT:ELECTRICITY" - not found.
   ** Warning ** Output:Meter: invalid Key Name="HEATRECOVERY:ELECTRICITY" - not found.
   ** Warning ** Output:Meter: invalid Key Name="HEATING:NATURALGAS" - not found.
   ** Warning ** Output:Meter: invalid Key Name="WATERSYSTEMS:NATURALGAS" - not found.
   ** Warning ** Output:Meter: invalid Key Name="PROPANE:FACILITY" - not found.
   ** Warning ** Output:Meter: invalid Key Name="HEATING:PROPANE" - not found.
   ************* Testing Individual Branch Integrity
   ************* All Branches passed integrity testing
   ************* Testing Individual Supply Air Path Integrity
   ************* All Supply Air Paths passed integrity testing
   ************* Testing Individual Return Air Path Integrity
   ************* All Return Air Paths passed integrity testing
   ************* No node connection errors were found.
   ************* Beginning Simulation
   ** Warning ** CalcEquipmentFlowRates: "TOTAL HOT WATER LOAD" - Target water temperature is greater than the hot water temperature by (1.11 C)
   **   ~~~   **  Environment=EXTREME_WINTER, at Simulation time=12/22 06:00 - 06:15
   **   ~~~   ** ...target water temperature     = 53.33 C
   **   ~~~   ** ...hot water temperature        = 52.22 C
   **   ~~~   ** ...Target water temperature should be less than or equal to the hot water temperature. Verify temperature setpoints and schedules.
   ** Warning ** SimHVAC: Maximum iterations (20) exceeded for all HVAC loops, at ANNUAL, 03/10 20:00 - 20:05
   **   ~~~   ** The solution for one or more of the Air Loop HVAC systems did not appear to converge
   **   ~~~   ** Air System Named = CENTRAL SYSTEM did not converge for mass flow rate
   **   ~~~   ** Check values should be zero. Most Recent values listed first.
   **   ~~~   ** Demand-to-Supply interface mass flow rate check value iteration history trace: 9.339555E-002,9.339555E-002,9.339555E-002,9.339555E-002,9.339555E-002,9.339555E-002,9.339555E-002,9.339555E-002,9.339555E-002,9.339555E-002,
   **   ~~~   ** Supply-to-demand interface deck 1 mass flow rate check value iteration history trace: 9.339555E-002,9.339555E-002,9.339555E-002,9.339555E-002,9.339555E-002,9.339555E-002,9.339555E-002,9.339555E-002,9.339555E-002,9.339555E-002,
   **   ~~~   ** Air System Named = CENTRAL SYSTEM did not converge for energy
   **   ~~~   ** Check values should be zero. Most Recent values listed first.
   **   ~~~   ** Demand-to-Supply interface energy check value iteration history trace: 1894.689985,1894.689985,1894.689985,1894.689985,1894.689985,1894.689984,1894.689984,1894.689984,1894.689984,1894.689984,
   **   ~~~   ** Supply-to-demand interface deck 1 energy check value iteration history trace: 2840.388090,2840.388090,2840.388090,2840.388089,2840.388089,2840.388089,2840.388089,2840.388089,2840.388089,2840.388088,
   ** Warning ** Temperature out of range [-100. to 200.] (PsyPsatFnTemp)
   **   ~~~   **  Routine=PsyTwbFnTdbWPb, Environment=ANNUAL, at Simulation time=03/26 18:00 - 18:04
   **   ~~~   **  Input Temperature=-1469.43
   ** Warning ** SimHVAC: Maximum iterations (20) exceeded for all HVAC loops, at ANNUAL, 04/05 17:00 - 17:15
   **   ~~~   ** The solution for one or more of the Air Loop HVAC systems did not appear to converge
   **   ~~~   ** Air System Named = CENTRAL SYSTEM did not converge for mass flow rate
   **   ~~~   ** Check values should be zero. Most Recent values listed first.
   **   ~~~   ** Demand-to-Supply interface mass flow rate check value iteration history trace: 3.251817E-002,3.251817E-002,3.251817E-002,3.251817E-002,3.251817E-002,3.251817E-002,3.251817E-002,3.251817E-002,3.251817E-002,3.251817E-002,
   **   ~~~   ** Supply-to-demand interface deck 1 mass flow rate check value iteration history trace: 3.251817E-002,3.251817E-002,3.251817E-002,3.251817E-002,3.251817E-002,3.251817E-002,3.251817E-002,3.251817E-002,3.251817E-002,3.251817E-002,
   **   ~~~   ** Air System Named = CENTRAL SYSTEM did not converge for energy
   **   ~~~   ** Check values should be zero. Most Recent values listed first.
   **   ~~~   ** Demand-to-Supply interface energy check value iteration history trace: 639.249522,639.249522,639.249522,639.249522,639.249522,639.249522,639.249522,639.249521,639.249521,639.249521,
   **   ~~~   ** Supply-to-demand interface deck 1 energy check value iteration history trace: 1084.182033,1084.182033,1084.182033,1084.182033,1084.182033,1084.182033,1084.182033,1084.182033,1084.182033,1084.182033,
   ** Warning ** SimHVAC: Maximum iterations (20) exceeded for all HVAC loops, at ANNUAL, 04/08 10:30 - 10:34
   **   ~~~   ** The solution for one or more of the Air Loop HVAC systems did not appear to converge
   **   ~~~   ** Air System Named = CENTRAL SYSTEM did not converge for mass flow rate
   **   ~~~   ** Check values should be zero. Most Recent values listed first.
   **   ~~~   ** Demand-to-Supply interface mass flow rate check value iteration history trace: 9.391984E-002,9.391984E-002,9.391984E-002,9.391984E-002,9.391984E-002,9.391984E-002,9.391984E-002,9.391984E-002,9.391984E-002,9.391984E-002,
   **   ~~~   ** Supply-to-demand interface deck 1 mass flow rate check value iteration history trace: 9.391984E-002,9.391984E-002,9.391984E-002,9.391984E-002,9.391984E-002,9.391984E-002,9.391984E-002,9.391984E-002,9.391984E-002,9.391984E-002,
   **   ~~~   ** Air System Named = CENTRAL SYSTEM did not converge for energy
   **   ~~~   ** Check values should be zero. Most Recent values listed first.
   **   ~~~   ** Demand-to-Supply interface energy check value iteration history trace: 1856.707554,1856.707554,1856.707554,1856.707553,1856.707553,1856.707553,1856.707553,1856.707553,1856.707553,1856.707553,
   **   ~~~   ** Supply-to-demand interface deck 1 energy check value iteration history trace: 2907.448381,2907.448381,2907.448381,2907.448380,2907.448380,2907.448380,2907.448380,2907.448380,2907.448380,2907.448379,
   ** Warning ** SimHVAC: Maximum iterations (20) exceeded for all HVAC loops, at ANNUAL, 04/14 15:30 - 15:32
   **   ~~~   ** The solution for one or more of the Air Loop HVAC systems did not appear to converge
   **   ~~~   ** Air System Named = CENTRAL SYSTEM did not converge for mass flow rate
   **   ~~~   ** Check values should be zero. Most Recent values listed first.
   **   ~~~   ** Demand-to-Supply interface mass flow rate check value iteration history trace: 0.102873,0.102873,0.102873,0.102873,0.102873,0.102873,0.102873,0.102873,0.102873,0.102873,
   **   ~~~   ** Supply-to-demand interface deck 1 mass flow rate check value iteration history trace: 0.102873,0.102873,0.102873,0.102873,0.102873,0.102873,0.102873,0.102873,0.102873,0.102873,
   **   ~~~   ** Air System Named = CENTRAL SYSTEM did not converge for energy
   **   ~~~   ** Check values should be zero. Most Recent values listed first.
   **   ~~~   ** Demand-to-Supply interface energy check value iteration history trace: 2038.494880,2038.494880,2038.494880,2038.494880,2038.494880,2038.494880,2038.494880,2038.494879,2038.494879,2038.494879,
   **   ~~~   ** Supply-to-demand interface deck 1 energy check value iteration history trace: 3107.459356,3107.459355,3107.459355,3107.459355,3107.459355,3107.459355,3107.459354,3107.459354,3107.459354,3107.459354,
   ** Warning ** SimHVAC: Maximum iterations (20) exceeded for all HVAC loops, at ANNUAL, 04/14 15:35 - 15:38
   **   ~~~   ** The solution for one or more of the Air Loop HVAC systems did not appear to converge
   **   ~~~   ** Air System Named = CENTRAL SYSTEM did not converge for mass flow rate
   **   ~~~   ** Check values should be zero. Most Recent values listed first.
   **   ~~~   ** Demand-to-Supply interface mass flow rate check value iteration history trace: 0.102250,0.102250,0.102250,0.102250,0.102250,0.102250,0.102250,0.102250,0.102250,0.102250,
   **   ~~~   ** Supply-to-demand interface deck 1 mass flow rate check value iteration history trace: 0.102250,0.102250,0.102250,0.102250,0.102250,0.102250,0.102250,0.102250,0.102250,0.102250,
   **   ~~~   ** Air System Named = CENTRAL SYSTEM did not converge for energy
   **   ~~~   ** Check values should be zero. Most Recent values listed first.
   **   ~~~   ** Demand-to-Supply interface energy check value iteration history trace: 2019.891793,2019.891793,2019.891793,2019.891793,2019.891793,2019.891793,2019.891793,2019.891792,2019.891792,2019.891792,
   **   ~~~   ** Supply-to-demand interface deck 1 energy check value iteration history trace: 3082.686621,3082.686620,3082.686620,3082.686620,3082.686620,3082.686620,3082.686620,3082.686619,3082.686619,3082.686619,
   ** Warning ** SimHVAC: Maximum iterations (20) exceeded for all HVAC loops, at ANNUAL, 04/14 16:45 - 16:47
   **   ~~~   ** The solution for one or more of the Air Loop HVAC systems did not appear to converge
   **   ~~~   ** Air System Named = CENTRAL SYSTEM did not converge for mass flow rate
   **   ~~~   ** Check values should be zero. Most Recent values listed first.
   **   ~~~   ** Demand-to-Supply interface mass flow rate check value iteration history trace: 9.520561E-002,9.520561E-002,9.520561E-002,9.520561E-002,9.520561E-002,9.520561E-002,9.520561E-002,9.520561E-002,9.520561E-002,9.520561E-002,
   **   ~~~   ** Supply-to-demand interface deck 1 mass flow rate check value iteration history trace: 9.520561E-002,9.520561E-002,9.520561E-002,9.520561E-002,9.520561E-002,9.520561E-002,9.520561E-002,9.520561E-002,9.520561E-002,9.520561E-002,
   **   ~~~   ** Air System Named = CENTRAL SYSTEM did not converge for energy
   **   ~~~   ** Check values should be zero. Most Recent values listed first.
   **   ~~~   ** Demand-to-Supply interface energy check value iteration history trace: 1882.780654,1882.780654,1882.780654,1882.780654,1882.780654,1882.780654,1882.780653,1882.780653,1882.780653,1882.780653,
   **   ~~~   ** Supply-to-demand interface deck 1 energy check value iteration history trace: 2846.365759,2846.365759,2846.365759,2846.365758,2846.365758,2846.365758,2846.365758,2846.365758,2846.365758,2846.365757,
   ** Warning ** SimHVAC: Maximum iterations (20) exceeded for all HVAC loops, at ANNUAL, 04/19 05:04 - 05:08
   **   ~~~   ** The solution for one or more of the Air Loop HVAC systems did not appear to converge
   **   ~~~   ** Air System Named = CENTRAL SYSTEM did not converge for mass flow rate
   **   ~~~   ** Check values should be zero. Most Recent values listed first.
   **   ~~~   ** Demand-to-Supply interface mass flow rate check value iteration history trace: 9.327080E-002,9.327080E-002,9.327080E-002,9.327080E-002,9.327080E-002,9.327080E-002,9.327080E-002,9.327080E-002,9.327080E-002,9.327080E-002,
   **   ~~~   ** Supply-to-demand interface deck 1 mass flow rate check value iteration history trace: 9.327080E-002,9.327080E-002,9.327080E-002,9.327080E-002,9.327080E-002,9.327080E-002,9.327080E-002,9.327080E-002,9.327080E-002,9.327080E-002,
   **   ~~~   ** Air System Named = CENTRAL SYSTEM did not converge for energy
   **   ~~~   ** Check values should be zero. Most Recent values listed first.
   **   ~~~   ** Demand-to-Supply interface energy check value iteration history trace: 1833.633788,1833.633788,1833.633787,1833.633787,1833.633787,1833.633787,1833.633787,1833.633787,1833.633787,1833.633786,
   **   ~~~   ** Supply-to-demand interface deck 1 energy check value iteration history trace: 2666.571909,2666.571909,2666.571908,2666.571908,2666.571908,2666.571908,2666.571908,2666.571907,2666.571907,2666.571907,
   ** Warning ** SimHVAC: Maximum iterations (20) exceeded for all HVAC loops, at ANNUAL, 04/25 19:15 - 19:30
   **   ~~~   ** The solution for one or more of the Air Loop HVAC systems did not appear to converge
   **   ~~~   ** Air System Named = CENTRAL SYSTEM did not converge for mass flow rate
   **   ~~~   ** Check values should be zero. Most Recent values listed first.
   **   ~~~   ** Demand-to-Supply interface mass flow rate check value iteration history trace: 8.180835E-002,8.180835E-002,8.180835E-002,8.180835E-002,8.180835E-002,8.180835E-002,8.180835E-002,8.180835E-002,8.180835E-002,8.180835E-002,
   **   ~~~   ** Supply-to-demand interface deck 1 mass flow rate check value iteration history trace: 8.180835E-002,8.180835E-002,8.180835E-002,8.180835E-002,8.180835E-002,8.180835E-002,8.180835E-002,8.180835E-002,8.180835E-002,8.180835E-002,
   **   ~~~   ** Air System Named = CENTRAL SYSTEM did not converge for energy
   **   ~~~   ** Check values should be zero. Most Recent values listed first.
   **   ~~~   ** Demand-to-Supply interface energy check value iteration history trace: 1620.718596,1620.718596,1620.718596,1620.718596,1620.718596,1620.718595,1620.718595,1620.718595,1620.718595,1620.718595,
   **   ~~~   ** Supply-to-demand interface deck 1 energy check value iteration history trace: 2720.421163,2720.421163,2720.421163,2720.421163,2720.421163,2720.421162,2720.421162,2720.421162,2720.421162,2720.421162,
   ** Warning ** SimHVAC: Maximum iterations (20) exceeded for all HVAC loops, at ANNUAL, 05/02 09:45 - 10:00
   **   ~~~   ** The solution for one or more of the Air Loop HVAC systems did not appear to converge
   **   ~~~   ** Air System Named = CENTRAL SYSTEM did not converge for mass flow rate
   **   ~~~   ** Check values should be zero. Most Recent values listed first.
   **   ~~~   ** Demand-to-Supply interface mass flow rate check value iteration history trace: 6.818961E-002,6.818961E-002,6.818961E-002,6.818961E-002,6.818961E-002,6.818961E-002,6.818961E-002,6.818961E-002,6.818961E-002,6.818961E-002,
   **   ~~~   ** Supply-to-demand interface deck 1 mass flow rate check value iteration history trace: 6.818961E-002,6.818961E-002,6.818961E-002,6.818961E-002,6.818961E-002,6.818961E-002,6.818961E-002,6.818961E-002,6.818961E-002,6.818961E-002,
   **   ~~~   ** Air System Named = CENTRAL SYSTEM did not converge for energy
   **   ~~~   ** Check values should be zero. Most Recent values listed first.
   **   ~~~   ** Demand-to-Supply interface energy check value iteration history trace: 1351.220598,1351.220598,1351.220598,1351.220598,1351.220598,1351.220598,1351.220598,1351.220598,1351.220598,1351.220598,
   **   ~~~   ** Supply-to-demand interface deck 1 energy check value iteration history trace: 2291.783990,2291.783990,2291.783990,2291.783989,2291.783989,2291.783989,2291.783989,2291.783989,2291.783989,2291.783989,
   ** Warning ** SimHVAC: Maximum iterations (20) exceeded for all HVAC loops, at ANNUAL, 05/06 11:45 - 12:00
   **   ~~~   ** The solution for one or more of the Air Loop HVAC systems did not appear to converge
   **   ~~~   ** Air System Named = CENTRAL SYSTEM did not converge for mass flow rate
   **   ~~~   ** Check values should be zero. Most Recent values listed first.
   **   ~~~   ** Demand-to-Supply interface mass flow rate check value iteration history trace: 6.429832E-002,6.429832E-002,6.429832E-002,6.429832E-002,6.429832E-002,6.429832E-002,6.429832E-002,6.429832E-002,6.429832E-002,6.429832E-002,
   **   ~~~   ** Supply-to-demand interface deck 1 mass flow rate check value iteration history trace: 6.429832E-002,6.429832E-002,6.429832E-002,6.429832E-002,6.429832E-002,6.429832E-002,6.429832E-002,6.429832E-002,6.429832E-002,6.429832E-002,
   **   ~~~   ** Air System Named = CENTRAL SYSTEM did not converge for energy
   **   ~~~   ** Check values should be zero. Most Recent values listed first.
   **   ~~~   ** Demand-to-Supply interface energy check value iteration history trace: 1274.047968,1274.047968,1274.047968,1274.047968,1274.047968,1274.047967,1274.047967,1274.047967,1274.047967,1274.047967,
   **   ~~~   ** Supply-to-demand interface deck 1 energy check value iteration history trace: 2181.320651,2181.320651,2181.320651,2181.320650,2181.320650,2181.320650,2181.320650,2181.320650,2181.320650,2181.320650,
   ** Warning ** SimHVAC: Maximum iterations (20) exceeded for all HVAC loops, at ANNUAL, 05/09 21:15 - 21:30
   **   ~~~   ** The solution for one or more of the Air Loop HVAC systems did not appear to converge
   **   ~~~   ** Air System Named = CENTRAL SYSTEM did not converge for mass flow rate
   **   ~~~   ** Check values should be zero. Most Recent values listed first.
   **   ~~~   ** Demand-to-Supply interface mass flow rate check value iteration history trace: 6.873115E-002,6.873115E-002,6.873115E-002,6.873115E-002,6.873115E-002,6.873115E-002,6.873115E-002,6.873115E-002,6.873115E-002,6.873115E-002,
   **   ~~~   ** Supply-to-demand interface deck 1 mass flow rate check value iteration history trace: 6.873115E-002,6.873115E-002,6.873115E-002,6.873115E-002,6.873115E-002,6.873115E-002,6.873115E-002,6.873115E-002,6.873115E-002,6.873115E-002,
   **   ~~~   ** Air System Named = CENTRAL SYSTEM did not converge for energy
   **   ~~~   ** Check values should be zero. Most Recent values listed first.
   **   ~~~   ** Demand-to-Supply interface energy check value iteration history trace: 1349.801807,1349.801807,1349.801807,1349.801807,1349.801807,1349.801807,1349.801807,1349.801807,1349.801807,1349.801807,
   **   ~~~   ** Supply-to-demand interface deck 1 energy check value iteration history trace: 2273.956481,2273.956481,2273.956481,2273.956481,2273.956480,2273.956480,2273.956480,2273.956480,2273.956480,2273.956480,
   ** Warning ** SimHVAC: Maximum iterations (20) exceeded for all HVAC loops, at ANNUAL, 06/07 07:45 - 08:00
   **   ~~~   ** The solution for one or more of the Air Loop HVAC systems did not appear to converge
   **   ~~~   ** Air System Named = CENTRAL SYSTEM did not converge for mass flow rate
   **   ~~~   ** Check values should be zero. Most Recent values listed first.
   **   ~~~   ** Demand-to-Supply interface mass flow rate check value iteration history trace: 6.440552E-002,6.440552E-002,6.440552E-002,6.440552E-002,6.440552E-002,6.440552E-002,6.440552E-002,6.440552E-002,6.440552E-002,6.440552E-002,
   **   ~~~   ** Supply-to-demand interface deck 1 mass flow rate check value iteration history trace: 6.440552E-002,6.440552E-002,6.440552E-002,6.440552E-002,6.440552E-002,6.440552E-002,6.440552E-002,6.440552E-002,6.440552E-002,6.440552E-002,
   **   ~~~   ** Air System Named = CENTRAL SYSTEM did not converge for energy
   **   ~~~   ** Check values should be zero. Most Recent values listed first.
   **   ~~~   ** Demand-to-Supply interface energy check value iteration history trace: 1276.179525,1276.179525,1276.179525,1276.179525,1276.179525,1276.179525,1276.179525,1276.179525,1276.179524,1276.179524,
   **   ~~~   ** Supply-to-demand interface deck 1 energy check value iteration history trace: 2251.159284,2251.159284,2251.159284,2251.159284,2251.159283,2251.159283,2251.159283,2251.159283,2251.159283,2251.159283,
   ** Warning ** SimHVAC: Maximum iterations (20) exceeded for all HVAC loops, at ANNUAL, 07/12 07:30 - 07:45
   **   ~~~   ** The solution for one or more of the Air Loop HVAC systems did not appear to converge
   **   ~~~   ** Air System Named = CENTRAL SYSTEM did not converge for mass flow rate
   **   ~~~   ** Check values should be zero. Most Recent values listed first.
   **   ~~~   ** Demand-to-Supply interface mass flow rate check value iteration history trace: 1.960148E-002,1.960148E-002,1.960148E-002,1.960148E-002,1.960148E-002,1.960148E-002,1.960148E-002,1.960148E-002,1.960148E-002,1.960148E-002,
   **   ~~~   ** Supply-to-demand interface deck 1 mass flow rate check value iteration history trace: 1.960148E-002,1.960148E-002,1.960148E-002,1.960148E-002,1.960148E-002,1.960148E-002,1.960148E-002,1.960148E-002,1.960148E-002,1.960148E-002,
   **   ~~~   ** Air System Named = CENTRAL SYSTEM did not converge for energy
   **   ~~~   ** Check values should be zero. Most Recent values listed first.
   **   ~~~   ** Demand-to-Supply interface energy check value iteration history trace: 460.383605,460.383605,460.383605,460.383605,460.383606,460.383606,460.383606,460.383606,460.383606,460.383606,
   **   ~~~   ** Supply-to-demand interface deck 1 energy check value iteration history trace: 254.721330,254.721331,254.721331,254.721331,254.721331,254.721331,254.721331,254.721331,254.721331,254.721331,
   ** Warning ** SimHVAC: Maximum iterations (20) exceeded for all HVAC loops, at ANNUAL, 07/22 09:45 - 10:00
   **   ~~~   ** The solution for one or more of the Air Loop HVAC systems did not appear to converge
   **   ~~~   ** Air System Named = CENTRAL SYSTEM did not converge for mass flow rate
   **   ~~~   ** Check values should be zero. Most Recent values listed first.
   **   ~~~   ** Demand-to-Supply interface mass flow rate check value iteration history trace: 3.698099E-002,3.698099E-002,3.698099E-002,3.698099E-002,3.698099E-002,3.698099E-002,3.698099E-002,3.698099E-002,3.698099E-002,3.698099E-002,
   **   ~~~   ** Supply-to-demand interface deck 1 mass flow rate check value iteration history trace: 3.698099E-002,3.698099E-002,3.698099E-002,3.698099E-002,3.698099E-002,3.698099E-002,3.698099E-002,3.698099E-002,3.698099E-002,3.698099E-002,
   **   ~~~   ** Air System Named = CENTRAL SYSTEM did not converge for energy
   **   ~~~   ** Check values should be zero. Most Recent values listed first.
   **   ~~~   ** Demand-to-Supply interface energy check value iteration history trace: 870.569587,870.569587,870.569587,870.569588,870.569588,870.569588,870.569588,870.569588,870.569589,870.569589,
   **   ~~~   ** Supply-to-demand interface deck 1 energy check value iteration history trace: 475.969573,475.969574,475.969574,475.969574,475.969574,475.969574,475.969574,475.969574,475.969574,475.969575,
   ************* Simulation Error Summary *************
   ** Warning ** The following Report Variables were requested but not generated -- check.rdd file
   **   ~~~   ** Either the IDF did not contain these elements, the variable name is misspelled,
   **   ~~~   ** or the requested variable is an advanced output which requires Output : Diagnostics, DisplayAdvancedReportVariables;
   ************* Key=*, VarName=BASEBOARD TOTAL HEATING ENERGY, Frequency=
   ************* Key=*, VarName=WATER HEATER NATURALGAS ENERGY, Frequency=
   ************* Key=*, VarName=COOLING COIL TOTAL HEATING ENERGY, Frequency=
   ************* There are 34 unused schedules in input.
   ************* There are 388 unused week schedules in input.
   ************* There are 396 unused day schedules in input.
   ************* Use Output:Diagnostics,DisplayUnusedSchedules; to see them.
   *************
   ************* ===== Recurring Error Summary =====
   ************* The following recurring error messages occurred.
   *************
   *************  ** Warning ** "TOTAL HOT WATER LOAD" - Target water temperature should be less than or equal to the hot water temperature error continues...
   *************  **   ~~~   **   This error occurred 115347 total times;
   *************  **   ~~~   **   during Warmup 0 times;
   *************  **   ~~~   **   during Sizing 0 times.
   *************  **   ~~~   **   Max=10.389499  Min=3.669460E-004
   *************
   *************  ** Warning ** Temperature out of range [-100. to 200.] (PsyPsatFnTemp)
   *************  **   ~~~   **   This error occurred 1 total times;
   *************  **   ~~~   **   during Warmup 0 times;
   *************  **   ~~~   **   during Sizing 0 times.
   *************  **   ~~~   **   Max=-1469.435303 C  Min=-1469.435303 C
   *************
   *************  ** Warning ** SimHVAC: Exceeding Maximum iterations for all HVAC loops, during ANNUAL continues
   *************  **   ~~~   **   This error occurred 14 total times;
   *************  **   ~~~   **   during Warmup 0 times;
   *************  **   ~~~   **   during Sizing 0 times.
   *************
   *************
   ************* ===== Final Error Summary =====
   ************* The following error categories occurred.  Consider correcting or noting.
   ************* Nominally Unused Constructions
   ************* ..The nominally unused constructions warning is provided to alert you to potential conditions that can cause
   ************* ..extra time during simulation. Each construction is calculated by the algorithm indicated in the HeatBalanceAlgorithm
   ************* ..object. You may remove the constructions indicated (when you use the DisplayExtraWarnings option).
   *************
   ************* EnergyPlus Warmup Error Summary. During Warmup: 0 Warning; 0 Severe Errors.
   ************* EnergyPlus Sizing Error Summary. During Sizing: 4 Warning; 0 Severe Errors.
   ************* EnergyPlus Completed Successfully-- 115395 Warning; 0 Severe Errors; Elapsed Time=00hr 01min 28.40sec
