Program Version,EnergyPlus, Version 22.2.0-c249759bad, YMD=2023.09.01 14:43,
   ************* Beginning Zone Sizing Calculations
   ** Warning ** ProcessScheduleInput: Schedule:Constant="ALWAYS ON DISCRETE", Schedule Type Limits Name="ONOFF" not found -- will not be validated
   ** Warning ** Foundation:Kiva="KIVA FOUNDATION", no Interior Horizontal Insulation Material Name defined
   **   ~~~   ** Interior Horizontal Insulation Depth will not be used.
   ** Warning ** CheckUsedConstructions: There are 15 nominally unused constructions in input.
   **   ~~~   ** Each Unused construction is shown.
   ************* Construction=INTERIOR FLOOR
   ************* Construction=INTERIOR WINDOW
   ************* Construction=EXTERIOR DOOR
   ************* Construction=INTERIOR DOOR
   ************* Construction=GABLE CONSTRUCTION
   ************* Construction=CRAWL_FLOOR
   ************* Construction=INSULATED PIPE
   ************* Construction=PLAIN PIPE
   ************* Construction=TDD PIPE
   ************* Construction=TDD DOME
   ************* Construction=TDD DIFFUSER
   ************* Construction=CRAWL WALL
   ************* Construction=CEILING-FLOOR-LAYER
   ************* Construction=SLAB CONSTRUCTION W FULL R10 INSULATION
   ************* Construction=SLAB CONSTRUCTION W FULL R5 INSULATION
   ** Warning ** GetDXCoils: Coil:Heating:DX:SingleSpeed="DX_HEATING_COIL" curve values
   **   ~~~   ** ... Defrost Energy Input Ratio Function of Temperature Curve Name = DEFROSTEIR output is not equal to 1.0 (+ or - 10%) at rated conditions.
   **   ~~~   ** ... Curve output at rated conditions = 0.152
   ************* Beginning System Sizing Calculations
   ************* Beginning Plant Sizing Calculations
   ** Warning ** SizeDXCoil Coil:Cooling:DX:SingleSpeed DX_COOLING_COIL
   **   ~~~   ** ...Gross Rated Total Cooling Capacity [W] will be limited by the maximum rated volume flow per rated total capacity ratio.
   **   ~~~   ** ...DX coil volume flow rate ( m3/s ) = 0.490159
   **   ~~~   ** ...Requested capacity ( W ) = 5568.544
   **   ~~~   ** ...Requested flow/capacity ratio ( m3/s/W ) = 8.802E-005
   **   ~~~   ** ...Maximum flow/capacity ratio ( m3/s/W ) = 6.041E-005
   **   ~~~   ** ...Adjusted capacity ( W ) = 8113.884
   ** Warning ** Coil:WaterHeating:AirToWaterHeatPump:Wrapped "HEAT PUMP WATER HEATER EVAPORATOR": Rated air volume flow rate per watt of rated total water heating capacity is out of range
   **   ~~~   ** Min Rated Vol Flow Per Watt=[4.027E-005], Rated Vol Flow Per Watt=[1.386E-004], Max Rated Vol Flow Per Watt=[8.056E-005]. See Input-Output Reference Manual for valid range.
   ** Warning ** Water heater = WATER HEATER TANK:  Recovery Efficiency and Energy Factor could not be calculated during the test for standard ratings
   **   ~~~   ** Setpoint was never recovered and/or heater never turned on
   ** Warning ** Check input. Pump nominal power or motor efficiency is set to 0, for pump=MAINS PRESSURE
   ** Warning ** Output:Meter: invalid Key Name="ELECTRIC_RANGE:INTERIOREQUIPMENT:ELECTRICITY" - not found.
   ** Warning ** Output:Meter: invalid Key Name="ELECTRIC_DRYER:INTERIOREQUIPMENT:ELECTRICITY" - not found.
   ** Warning ** Output:Meter: invalid Key Name="HEATRECOVERY:ELECTRICITY" - not found.
   ** Warning ** Output:Meter: invalid Key Name="HEATING:NATURALGAS" - not found.
   ** Warning ** Output:Meter: invalid Key Name="WATERSYSTEMS:NATURALGAS" - not found.
   ** Warning ** Output:Meter: invalid Key Name="PROPANE:FACILITY" - not found.
   ** Warning ** Output:Meter: invalid Key Name="HEATING:PROPANE" - not found.
   ************* Testing Individual Branch Integrity
   ************* All Branches passed integrity testing
   ************* Testing Individual Supply Air Path Integrity
   ************* All Supply Air Paths passed integrity testing
   ************* Testing Individual Return Air Path Integrity
   ************* All Return Air Paths passed integrity testing
   ************* No node connection errors were found.
   ************* Beginning Simulation
   ** Warning ** AirflowNetwork::Solver::validate_distribution: Heat pump water heater is simulated along with an AirflowNetwork but is not included in the AirflowNetwork.
   ** Warning ** CalcEquipmentFlowRates: "TOTAL HOT WATER LOAD" - Target water temperature is greater than the hot water temperature by (1.74 C)
   **   ~~~   **  Environment=EXTREME_WINTER, at Simulation time=01/27 06:00 - 06:15
   **   ~~~   ** ...target water temperature     = 53.33 C
   **   ~~~   ** ...hot water temperature        = 51.59 C
   **   ~~~   ** ...Target water temperature should be less than or equal to the hot water temperature. Verify temperature setpoints and schedules.
   ** Warning ** SimHVAC: Maximum iterations (20) exceeded for all HVAC loops, at ANNUAL, 01/01 13:00 - 13:15
   **   ~~~   ** The solution for one or more of the Air Loop HVAC systems did not appear to converge
   **   ~~~   ** Air System Named = CENTRAL SYSTEM did not converge for mass flow rate
   **   ~~~   ** Check values should be zero. Most Recent values listed first.
   **   ~~~   ** Demand-to-Supply interface mass flow rate check value iteration history trace: 5.418713E-002,5.418713E-002,5.418713E-002,5.418713E-002,5.418713E-002,5.418713E-002,5.418713E-002,5.418713E-002,5.418713E-002,5.418713E-002,
   **   ~~~   ** Supply-to-demand interface deck 1 mass flow rate check value iteration history trace: 5.418713E-002,5.418713E-002,5.418713E-002,5.418713E-002,5.418713E-002,5.418713E-002,5.418713E-002,5.418713E-002,5.418713E-002,5.418713E-002,
   **   ~~~   ** Air System Named = CENTRAL SYSTEM did not converge for energy
   **   ~~~   ** Check values should be zero. Most Recent values listed first.
   **   ~~~   ** Demand-to-Supply interface energy check value iteration history trace: 1061.372864,1061.372864,1061.372864,1061.372864,1061.372864,1061.372864,1061.372864,1061.372864,1061.372864,1061.372864,
   **   ~~~   ** Supply-to-demand interface deck 1 energy check value iteration history trace: 1847.038301,1847.038301,1847.038301,1847.038301,1847.038301,1847.038301,1847.038301,1847.038301,1847.038300,1847.038300,
   ** Warning ** SimHVAC: Maximum iterations (20) exceeded for all HVAC loops, at ANNUAL, 01/29 14:15 - 14:30
   **   ~~~   ** The solution for one or more of the Air Loop HVAC systems did not appear to converge
   **   ~~~   ** Air System Named = CENTRAL SYSTEM did not converge for mass flow rate
   **   ~~~   ** Check values should be zero. Most Recent values listed first.
   **   ~~~   ** Demand-to-Supply interface mass flow rate check value iteration history trace: 4.974000E-002,4.974000E-002,4.974000E-002,4.974000E-002,4.974000E-002,4.974000E-002,4.974000E-002,4.974000E-002,4.974000E-002,4.974000E-002,
   **   ~~~   ** Supply-to-demand interface deck 1 mass flow rate check value iteration history trace: 4.974000E-002,4.974000E-002,4.974000E-002,4.974000E-002,4.974000E-002,4.974000E-002,4.974000E-002,4.974000E-002,4.974000E-002,4.974000E-002,
   **   ~~~   ** Air System Named = CENTRAL SYSTEM did not converge for energy
   **   ~~~   ** Check values should be zero. Most Recent values listed first.
   **   ~~~   ** Demand-to-Supply interface energy check value iteration history trace: 983.140958,983.140958,983.140958,983.140958,983.140958,983.140958,983.140958,983.140958,983.140958,983.140958,
   **   ~~~   ** Supply-to-demand interface deck 1 energy check value iteration history trace: 1651.910435,1651.910435,1651.910435,1651.910435,1651.910434,1651.910434,1651.910434,1651.910434,1651.910434,1651.910434,
   ** Warning ** SimHVAC: Maximum iterations (20) exceeded for all HVAC loops, at ANNUAL, 02/12 13:15 - 13:30
   **   ~~~   ** The solution for one or more of the Air Loop HVAC systems did not appear to converge
   **   ~~~   ** Air System Named = CENTRAL SYSTEM did not converge for mass flow rate
   **   ~~~   ** Check values should be zero. Most Recent values listed first.
   **   ~~~   ** Demand-to-Supply interface mass flow rate check value iteration history trace: 5.727804E-002,5.727804E-002,5.727804E-002,5.727804E-002,5.727804E-002,5.727804E-002,5.727804E-002,5.727804E-002,5.727804E-002,5.727804E-002,
   **   ~~~   ** Supply-to-demand interface deck 1 mass flow rate check value iteration history trace: 5.727804E-002,5.727804E-002,5.727804E-002,5.727804E-002,5.727804E-002,5.727804E-002,5.727804E-002,5.727804E-002,5.727804E-002,5.727804E-002,
   **   ~~~   ** Air System Named = CENTRAL SYSTEM did not converge for energy
   **   ~~~   ** Check values should be zero. Most Recent values listed first.
   **   ~~~   ** Demand-to-Supply interface energy check value iteration history trace: 1131.403440,1131.403440,1131.403440,1131.403440,1131.403440,1131.403440,1131.403440,1131.403440,1131.403440,1131.403440,
   **   ~~~   ** Supply-to-demand interface deck 1 energy check value iteration history trace: 1972.957079,1972.957079,1972.957079,1972.957079,1972.957079,1972.957079,1972.957079,1972.957079,1972.957079,1972.957079,
   ** Warning ** SimHVAC: Maximum iterations (20) exceeded for all HVAC loops, at ANNUAL, 02/18 18:30 - 18:34
   **   ~~~   ** The solution for one or more of the Air Loop HVAC systems did not appear to converge
   **   ~~~   ** Air System Named = CENTRAL SYSTEM did not converge for mass flow rate
   **   ~~~   ** Check values should be zero. Most Recent values listed first.
   **   ~~~   ** Demand-to-Supply interface mass flow rate check value iteration history trace: 8.199874E-002,8.199874E-002,8.199874E-002,8.199874E-002,8.199874E-002,8.199874E-002,8.199874E-002,8.199874E-002,8.199874E-002,8.199874E-002,
   **   ~~~   ** Supply-to-demand interface deck 1 mass flow rate check value iteration history trace: 8.199874E-002,8.199874E-002,8.199874E-002,8.199874E-002,8.199874E-002,8.199874E-002,8.199874E-002,8.199874E-002,8.199874E-002,8.199874E-002,
   **   ~~~   ** Air System Named = CENTRAL SYSTEM did not converge for energy
   **   ~~~   ** Check values should be zero. Most Recent values listed first.
   **   ~~~   ** Demand-to-Supply interface energy check value iteration history trace: 1620.690256,1620.690256,1620.690256,1620.690256,1620.690256,1620.690256,1620.690256,1620.690256,1620.690255,1620.690255,
   **   ~~~   ** Supply-to-demand interface deck 1 energy check value iteration history trace: 2630.149357,2630.149357,2630.149356,2630.149356,2630.149356,2630.149356,2630.149356,2630.149356,2630.149356,2630.149356,
   ** Warning ** SimHVAC: Maximum iterations (20) exceeded for all HVAC loops, at ANNUAL, 02/19 11:15 - 11:22
   **   ~~~   ** The solution for one or more of the Air Loop HVAC systems did not appear to converge
   **   ~~~   ** Air System Named = CENTRAL SYSTEM did not converge for mass flow rate
   **   ~~~   ** Check values should be zero. Most Recent values listed first.
   **   ~~~   ** Demand-to-Supply interface mass flow rate check value iteration history trace: 6.264547E-002,6.264547E-002,6.264547E-002,6.264547E-002,6.264547E-002,6.264547E-002,6.264547E-002,6.264547E-002,6.264547E-002,6.264547E-002,
   **   ~~~   ** Supply-to-demand interface deck 1 mass flow rate check value iteration history trace: 6.264547E-002,6.264547E-002,6.264547E-002,6.264547E-002,6.264547E-002,6.264547E-002,6.264547E-002,6.264547E-002,6.264547E-002,6.264547E-002,
   **   ~~~   ** Air System Named = CENTRAL SYSTEM did not converge for energy
   **   ~~~   ** Check values should be zero. Most Recent values listed first.
   **   ~~~   ** Demand-to-Supply interface energy check value iteration history trace: 1231.181885,1231.181885,1231.181885,1231.181884,1231.181884,1231.181884,1231.181884,1231.181884,1231.181884,1231.181884,
   **   ~~~   ** Supply-to-demand interface deck 1 energy check value iteration history trace: 2316.805874,2316.805874,2316.805874,2316.805874,2316.805874,2316.805873,2316.805873,2316.805873,2316.805873,2316.805873,
   ** Warning ** SimHVAC: Maximum iterations (20) exceeded for all HVAC loops, at ANNUAL, 02/19 12:34 - 12:38
   **   ~~~   ** The solution for one or more of the Air Loop HVAC systems did not appear to converge
   **   ~~~   ** Air System Named = CENTRAL SYSTEM did not converge for mass flow rate
   **   ~~~   ** Check values should be zero. Most Recent values listed first.
   **   ~~~   ** Demand-to-Supply interface mass flow rate check value iteration history trace: 5.380351E-002,5.380351E-002,5.380351E-002,5.380351E-002,5.380351E-002,5.380351E-002,5.380351E-002,5.380351E-002,5.380351E-002,5.380351E-002,
   **   ~~~   ** Supply-to-demand interface deck 1 mass flow rate check value iteration history trace: 5.380351E-002,5.380351E-002,5.380351E-002,5.380351E-002,5.380351E-002,5.380351E-002,5.380351E-002,5.380351E-002,5.380351E-002,5.380351E-002,
   **   ~~~   ** Air System Named = CENTRAL SYSTEM did not converge for energy
   **   ~~~   ** Check values should be zero. Most Recent values listed first.
   **   ~~~   ** Demand-to-Supply interface energy check value iteration history trace: 1065.644478,1065.644478,1065.644478,1065.644478,1065.644478,1065.644478,1065.644478,1065.644478,1065.644478,1065.644477,
   **   ~~~   ** Supply-to-demand interface deck 1 energy check value iteration history trace: 1987.007655,1987.007655,1987.007655,1987.007655,1987.007655,1987.007655,1987.007655,1987.007655,1987.007654,1987.007654,
   ** Warning ** SimHVAC: Maximum iterations (20) exceeded for all HVAC loops, at ANNUAL, 03/02 20:00 - 20:05
   **   ~~~   ** The solution for one or more of the Air Loop HVAC systems did not appear to converge
   **   ~~~   ** Air System Named = CENTRAL SYSTEM did not converge for mass flow rate
   **   ~~~   ** Check values should be zero. Most Recent values listed first.
   **   ~~~   ** Demand-to-Supply interface mass flow rate check value iteration history trace: 8.065534E-002,8.065534E-002,8.065534E-002,8.065534E-002,8.065534E-002,8.065534E-002,8.065534E-002,8.065534E-002,8.065534E-002,8.065534E-002,
   **   ~~~   ** Supply-to-demand interface deck 1 mass flow rate check value iteration history trace: 8.065534E-002,8.065534E-002,8.065534E-002,8.065534E-002,8.065534E-002,8.065534E-002,8.065534E-002,8.065534E-002,8.065534E-002,8.065534E-002,
   **   ~~~   ** Air System Named = CENTRAL SYSTEM did not converge for energy
   **   ~~~   ** Check values should be zero. Most Recent values listed first.
   **   ~~~   ** Demand-to-Supply interface energy check value iteration history trace: 1591.770904,1591.770904,1591.770904,1591.770904,1591.770904,1591.770904,1591.770903,1591.770903,1591.770903,1591.770903,
   **   ~~~   ** Supply-to-demand interface deck 1 energy check value iteration history trace: 2620.598374,2620.598373,2620.598373,2620.598373,2620.598373,2620.598373,2620.598373,2620.598373,2620.598373,2620.598373,
   ** Warning ** SimHVAC: Maximum iterations (20) exceeded for all HVAC loops, at ANNUAL, 03/11 09:18 - 09:21
   **   ~~~   ** The solution for one or more of the Air Loop HVAC systems did not appear to converge
   **   ~~~   ** Air System Named = CENTRAL SYSTEM did not converge for mass flow rate
   **   ~~~   ** Check values should be zero. Most Recent values listed first.
   **   ~~~   ** Demand-to-Supply interface mass flow rate check value iteration history trace: 6.559208E-002,6.559208E-002,6.559208E-002,6.559208E-002,6.559208E-002,6.559208E-002,6.559208E-002,6.559208E-002,6.559208E-002,6.559208E-002,
   **   ~~~   ** Supply-to-demand interface deck 1 mass flow rate check value iteration history trace: 6.559208E-002,6.559208E-002,6.559208E-002,6.559208E-002,6.559208E-002,6.559208E-002,6.559208E-002,6.559208E-002,6.559208E-002,6.559208E-002,
   **   ~~~   ** Air System Named = CENTRAL SYSTEM did not converge for energy
   **   ~~~   ** Check values should be zero. Most Recent values listed first.
   **   ~~~   ** Demand-to-Supply interface energy check value iteration history trace: 1299.836980,1299.836980,1299.836980,1299.836980,1299.836980,1299.836980,1299.836980,1299.836979,1299.836979,1299.836979,
   **   ~~~   ** Supply-to-demand interface deck 1 energy check value iteration history trace: 2436.492443,2436.492443,2436.492443,2436.492443,2436.492443,2436.492442,2436.492442,2436.492442,2436.492442,2436.492442,
   ** Warning ** SimHVAC: Maximum iterations (20) exceeded for all HVAC loops, at ANNUAL, 03/12 21:35 - 21:40
   **   ~~~   ** The solution for one or more of the Air Loop HVAC systems did not appear to converge
   **   ~~~   ** Air System Named = CENTRAL SYSTEM did not converge for mass flow rate
   **   ~~~   ** Check values should be zero. Most Recent values listed first.
   **   ~~~   ** Demand-to-Supply interface mass flow rate check value iteration history trace: 8.025617E-002,8.025617E-002,8.025617E-002,8.025617E-002,8.025617E-002,8.025617E-002,8.025617E-002,8.025617E-002,8.025617E-002,8.025617E-002,
   **   ~~~   ** Supply-to-demand interface deck 1 mass flow rate check value iteration history trace: 8.025617E-002,8.025617E-002,8.025617E-002,8.025617E-002,8.025617E-002,8.025617E-002,8.025617E-002,8.025617E-002,8.025617E-002,8.025617E-002,
   **   ~~~   ** Air System Named = CENTRAL SYSTEM did not converge for energy
   **   ~~~   ** Check values should be zero. Most Recent values listed first.
   **   ~~~   ** Demand-to-Supply interface energy check value iteration history trace: 1584.140553,1584.140553,1584.140553,1584.140553,1584.140553,1584.140553,1584.140553,1584.140552,1584.140552,1584.140552,
   **   ~~~   ** Supply-to-demand interface deck 1 energy check value iteration history trace: 2548.928413,2548.928412,2548.928412,2548.928412,2548.928412,2548.928412,2548.928412,2548.928412,2548.928412,2548.928411,
   ** Warning ** SimHVAC: Maximum iterations (20) exceeded for all HVAC loops, at ANNUAL, 03/14 18:53 - 18:56
   **   ~~~   ** The solution for one or more of the Air Loop HVAC systems did not appear to converge
   **   ~~~   ** Air System Named = CENTRAL SYSTEM did not converge for mass flow rate
   **   ~~~   ** Check values should be zero. Most Recent values listed first.
   **   ~~~   ** Demand-to-Supply interface mass flow rate check value iteration history trace: 7.621600E-002,7.621600E-002,7.621600E-002,7.621600E-002,7.621600E-002,7.621600E-002,7.621600E-002,7.621600E-002,7.621600E-002,7.621600E-002,
   **   ~~~   ** Supply-to-demand interface deck 1 mass flow rate check value iteration history trace: 7.621600E-002,7.621600E-002,7.621600E-002,7.621600E-002,7.621600E-002,7.621600E-002,7.621600E-002,7.621600E-002,7.621600E-002,7.621600E-002,
   **   ~~~   ** Air System Named = CENTRAL SYSTEM did not converge for energy
   **   ~~~   ** Check values should be zero. Most Recent values listed first.
   **   ~~~   ** Demand-to-Supply interface energy check value iteration history trace: 1502.787431,1502.787431,1502.787430,1502.787430,1502.787430,1502.787430,1502.787430,1502.787430,1502.787430,1502.787430,
   **   ~~~   ** Supply-to-demand interface deck 1 energy check value iteration history trace: 2475.124060,2475.124060,2475.124060,2475.124060,2475.124060,2475.124059,2475.124059,2475.124059,2475.124059,2475.124059,
   ** Warning ** Cooling coil control failed to converge for AirLoopHVAC:UnitaryHeatPump:AirToAir:SS HEAT PUMP
   **   ~~~   **   Iteration limit exceeded in calculating DX cooling coil sensible part-load ratio.
   **   ~~~   ** Sensible load to be met by DX coil = -591.91 (watts), sensible output of DX coil = -589.24 (watts), and the simulation continues.
   **   ~~~   **  Environment=ANNUAL, at Simulation time=03/18 16:25 - 16:30
   ** Warning ** SimHVAC: Maximum iterations (20) exceeded for all HVAC loops, at ANNUAL, 03/19 10:15 - 10:30
   **   ~~~   ** The solution for one or more of the Air Loop HVAC systems did not appear to converge
   **   ~~~   ** Air System Named = CENTRAL SYSTEM did not converge for mass flow rate
   **   ~~~   ** Check values should be zero. Most Recent values listed first.
   **   ~~~   ** Demand-to-Supply interface mass flow rate check value iteration history trace: 7.855936E-002,7.855936E-002,7.855936E-002,7.855936E-002,7.855936E-002,7.855936E-002,7.855936E-002,7.855936E-002,7.855936E-002,7.855936E-002,
   **   ~~~   ** Supply-to-demand interface deck 1 mass flow rate check value iteration history trace: 7.855936E-002,7.855936E-002,7.855936E-002,7.855936E-002,7.855936E-002,7.855936E-002,7.855936E-002,7.855936E-002,7.855936E-002,7.855936E-002,
   **   ~~~   ** Air System Named = CENTRAL SYSTEM did not converge for energy
   **   ~~~   ** Check values should be zero. Most Recent values listed first.
   **   ~~~   ** Demand-to-Supply interface energy check value iteration history trace: 1556.781309,1556.781309,1556.781309,1556.781309,1556.781308,1556.781308,1556.781308,1556.781308,1556.781308,1556.781308,
   **   ~~~   ** Supply-to-demand interface deck 1 energy check value iteration history trace: 2664.654915,2664.654915,2664.654914,2664.654914,2664.654914,2664.654914,2664.654914,2664.654914,2664.654914,2664.654914,
   ** Warning ** SimHVAC: Maximum iterations (20) exceeded for all HVAC loops, at ANNUAL, 03/26 09:03 - 09:06
   **   ~~~   ** The solution for one or more of the Air Loop HVAC systems did not appear to converge
   **   ~~~   ** Air System Named = CENTRAL SYSTEM did not converge for mass flow rate
   **   ~~~   ** Check values should be zero. Most Recent values listed first.
   **   ~~~   ** Demand-to-Supply interface mass flow rate check value iteration history trace: 6.320887E-002,6.320887E-002,6.320887E-002,6.320887E-002,6.320887E-002,6.320887E-002,6.320887E-002,6.320887E-002,6.320887E-002,6.320887E-002,
   **   ~~~   ** Supply-to-demand interface deck 1 mass flow rate check value iteration history trace: 6.320887E-002,6.320887E-002,6.320887E-002,6.320887E-002,6.320887E-002,6.320887E-002,6.320887E-002,6.320887E-002,6.320887E-002,6.320887E-002,
   **   ~~~   ** Air System Named = CENTRAL SYSTEM did not converge for energy
   **   ~~~   ** Check values should be zero. Most Recent values listed first.
   **   ~~~   ** Demand-to-Supply interface energy check value iteration history trace: 1252.611845,1252.611845,1252.611845,1252.611845,1252.611845,1252.611845,1252.611845,1252.611845,1252.611845,1252.611845,
   **   ~~~   ** Supply-to-demand interface deck 1 energy check value iteration history trace: 2457.044650,2457.044650,2457.044649,2457.044649,2457.044649,2457.044649,2457.044649,2457.044649,2457.044649,2457.044649,
   ** Warning ** SimHVAC: Maximum iterations (20) exceeded for all HVAC loops, at ANNUAL, 04/09 08:31 - 08:33
   **   ~~~   ** The solution for one or more of the Air Loop HVAC systems did not appear to converge
   **   ~~~   ** Air System Named = CENTRAL SYSTEM did not converge for mass flow rate
   **   ~~~   ** Check values should be zero. Most Recent values listed first.
   **   ~~~   ** Demand-to-Supply interface mass flow rate check value iteration history trace: 5.183071E-002,5.183071E-002,5.183071E-002,5.183071E-002,5.183071E-002,5.183071E-002,5.183071E-002,5.183071E-002,5.183071E-002,5.183071E-002,
   **   ~~~   ** Supply-to-demand interface deck 1 mass flow rate check value iteration history trace: 5.183071E-002,5.183071E-002,5.183071E-002,5.183071E-002,5.183071E-002,5.183071E-002,5.183071E-002,5.183071E-002,5.183071E-002,5.183071E-002,
   **   ~~~   ** Air System Named = CENTRAL SYSTEM did not converge for energy
   **   ~~~   ** Check values should be zero. Most Recent values listed first.
   **   ~~~   ** Demand-to-Supply interface energy check value iteration history trace: 1027.206485,1027.206485,1027.206485,1027.206485,1027.206485,1027.206485,1027.206485,1027.206485,1027.206485,1027.206485,
   **   ~~~   ** Supply-to-demand interface deck 1 energy check value iteration history trace: 1922.744136,1922.744136,1922.744136,1922.744136,1922.744136,1922.744136,1922.744136,1922.744136,1922.744136,1922.744136,
   ** Warning ** Temperature out of range [-100. to 200.] (PsyPsatFnTemp)
   **   ~~~   **  Routine=PsyTwbFnTdbWPb, Environment=ANNUAL, at Simulation time=04/11 18:15 - 18:18
   **   ~~~   **  Input Temperature=-179.52
   ** Warning ** SimHVAC: Maximum iterations (20) exceeded for all HVAC loops, at ANNUAL, 04/23 13:15 - 13:30
   **   ~~~   ** The solution for one or more of the Air Loop HVAC systems did not appear to converge
   **   ~~~   ** Air System Named = CENTRAL SYSTEM did not converge for mass flow rate
   **   ~~~   ** Check values should be zero. Most Recent values listed first.
   **   ~~~   ** Demand-to-Supply interface mass flow rate check value iteration history trace: 4.214793E-002,4.214793E-002,4.214793E-002,4.214793E-002,4.214793E-002,4.214793E-002,4.214793E-002,4.214793E-002,4.214793E-002,4.214793E-002,
   **   ~~~   ** Supply-to-demand interface deck 1 mass flow rate check value iteration history trace: 4.214793E-002,4.214793E-002,4.214793E-002,4.214793E-002,4.214793E-002,4.214793E-002,4.214793E-002,4.214793E-002,4.214793E-002,4.214793E-002,
   **   ~~~   ** Air System Named = CENTRAL SYSTEM did not converge for energy
   **   ~~~   ** Check values should be zero. Most Recent values listed first.
   **   ~~~   ** Demand-to-Supply interface energy check value iteration history trace: 822.436329,822.436329,822.436329,822.436329,822.436329,822.436329,822.436329,822.436329,822.436329,822.436329,
   **   ~~~   ** Supply-to-demand interface deck 1 energy check value iteration history trace: 1606.509386,1606.509386,1606.509386,1606.509386,1606.509386,1606.509386,1606.509386,1606.509386,1606.509386,1606.509386,
   ** Warning ** CalcDoe2DXCoil: Coil:Cooling:DX:SingleSpeed "DX_COOLING_COIL" - Air-cooled condenser inlet dry-bulb temperature below 0 C. Outdoor dry-bulb temperature = -2.50E-002
   **   ~~~   **  ... Occurrence info = ANNUAL, 10/18 19:30 - 19:34
   **   ~~~   ** ... Operation at low ambient temperatures may require special performance curves.
   ************* Simulation Error Summary *************
   ** Warning ** The following Report Variables were requested but not generated -- check.rdd file
   **   ~~~   ** Either the IDF did not contain these elements, the variable name is misspelled,
   **   ~~~   ** or the requested variable is an advanced output which requires Output : Diagnostics, DisplayAdvancedReportVariables;
   ************* Key=*, VarName=BASEBOARD TOTAL HEATING ENERGY, Frequency=
   ************* Key=*, VarName=WATER HEATER NATURALGAS ENERGY, Frequency=
   ************* Key=*, VarName=COOLING COIL TOTAL HEATING ENERGY, Frequency=
   ************* There are 34 unused schedules in input.
   ************* There are 388 unused week schedules in input.
   ************* There are 396 unused day schedules in input.
   ************* Use Output:Diagnostics,DisplayUnusedSchedules; to see them.
   *************
   ************* ===== Recurring Error Summary =====
   ************* The following recurring error messages occurred.
   *************
   *************  ** Warning ** "TOTAL HOT WATER LOAD" - Target water temperature should be less than or equal to the hot water temperature error continues...
   *************  **   ~~~   **   This error occurred 156311 total times;
   *************  **   ~~~   **   during Warmup 0 times;
   *************  **   ~~~   **   during Sizing 0 times.
   *************  **   ~~~   **   Max=12.116233  Min=4.071131E-004
   *************
   *************  ** Warning ** AirLoopHVAC:UnitaryHeatPump:AirToAir "SS HEAT PUMP" - Iteration limit exceeded in calculating sensible cooling part-load ratio error continues. Sensible load statistics:
   *************  **   ~~~   **   This error occurred 3 total times;
   *************  **   ~~~   **   during Warmup 0 times;
   *************  **   ~~~   **   during Sizing 0 times.
   *************  **   ~~~   **   Max=-591.913233  Min=-591.913233
   *************
   *************  ** Warning ** Temperature out of range [-100. to 200.] (PsyPsatFnTemp)
   *************  **   ~~~   **   This error occurred 65 total times;
   *************  **   ~~~   **   during Warmup 0 times;
   *************  **   ~~~   **   during Sizing 0 times.
   *************  **   ~~~   **   Max=-103.77969 C  Min=-546.073242 C
   *************
   *************  ** Warning ** SimHVAC: Exceeding Maximum iterations for all HVAC loops, during ANNUAL continues
   *************  **   ~~~   **   This error occurred 18 total times;
   *************  **   ~~~   **   during Warmup 0 times;
   *************  **   ~~~   **   during Sizing 0 times.
   *************
   *************  ** Warning ** CalcDoe2DXCoil: Coil:Cooling:DX:SingleSpeed="DX_COOLING_COIL" - Low condenser dry-bulb temperature error continues...
   *************  **   ~~~   **   This error occurred 1 total times;
   *************  **   ~~~   **   during Warmup 0 times;
   *************  **   ~~~   **   during Sizing 0 times.
   *************  **   ~~~   **   Max=-2.500000E-002 [C]  Min=-2.500000E-002 [C]
   *************
   *************
   ************* ===== Final Error Summary =====
   ************* The following error categories occurred.  Consider correcting or noting.
   ************* Nominally Unused Constructions
   ************* ..The nominally unused constructions warning is provided to alert you to potential conditions that can cause
   ************* ..extra time during simulation. Each construction is calculated by the algorithm indicated in the HeatBalanceAlgorithm
   ************* ..object. You may remove the constructions indicated (when you use the DisplayExtraWarnings option).
   *************
   ************* EnergyPlus Warmup Error Summary. During Warmup: 1 Warning; 0 Severe Errors.
   ************* EnergyPlus Sizing Error Summary. During Sizing: 4 Warning; 0 Severe Errors.
   ************* EnergyPlus Completed Successfully-- 156430 Warning; 0 Severe Errors; Elapsed Time=00hr 06min 38.26sec
