Program Version,EnergyPlus, Version 22.2.0-c249759bad, YMD=2023.09.01 14:36,
   ************* Beginning Zone Sizing Calculations
   ** Warning ** ProcessScheduleInput: Schedule:Constant="ALWAYS ON DISCRETE", Schedule Type Limits Name="ONOFF" not found -- will not be validated
   ** Warning ** Foundation:Kiva="KIVA FOUNDATION", no Interior Horizontal Insulation Material Name defined
   **   ~~~   ** Interior Horizontal Insulation Depth will not be used.
   ** Warning ** CheckUsedConstructions: There are 15 nominally unused constructions in input.
   **   ~~~   ** Each Unused construction is shown.
   ************* Construction=INTERIOR FLOOR
   ************* Construction=INTERIOR WINDOW
   ************* Construction=EXTERIOR DOOR
   ************* Construction=INTERIOR DOOR
   ************* Construction=GABLE CONSTRUCTION
   ************* Construction=CRAWL_FLOOR
   ************* Construction=INSULATED PIPE
   ************* Construction=PLAIN PIPE
   ************* Construction=TDD PIPE
   ************* Construction=TDD DOME
   ************* Construction=TDD DIFFUSER
   ************* Construction=CRAWL WALL
   ************* Construction=CEILING-FLOOR-LAYER
   ************* Construction=SLAB CONSTRUCTION W FULL R10 INSULATION
   ************* Construction=SLAB CONSTRUCTION W FULL R5 INSULATION
   ** Warning ** GetDXCoils: Coil:Heating:DX:SingleSpeed="DX_HEATING_COIL" curve values
   **   ~~~   ** ... Defrost Energy Input Ratio Function of Temperature Curve Name = DEFROSTEIR output is not equal to 1.0 (+ or - 10%) at rated conditions.
   **   ~~~   ** ... Curve output at rated conditions = 0.152
   ************* Beginning System Sizing Calculations
   ************* Beginning Plant Sizing Calculations
   ** Warning ** Coil:WaterHeating:AirToWaterHeatPump:Wrapped "HEAT PUMP WATER HEATER EVAPORATOR": Rated air volume flow rate per watt of rated total water heating capacity is out of range
   **   ~~~   ** Min Rated Vol Flow Per Watt=[4.027E-005], Rated Vol Flow Per Watt=[1.386E-004], Max Rated Vol Flow Per Watt=[8.056E-005]. See Input-Output Reference Manual for valid range.
   ** Warning ** Water heater = WATER HEATER TANK:  Recovery Efficiency and Energy Factor could not be calculated during the test for standard ratings
   **   ~~~   ** Setpoint was never recovered and/or heater never turned on
   ** Warning ** Check input. Pump nominal power or motor efficiency is set to 0, for pump=MAINS PRESSURE
   ** Warning ** Output:Meter: invalid Key Name="ELECTRIC_RANGE:INTERIOREQUIPMENT:ELECTRICITY" - not found.
   ** Warning ** Output:Meter: invalid Key Name="ELECTRIC_DRYER:INTERIOREQUIPMENT:ELECTRICITY" - not found.
   ** Warning ** Output:Meter: invalid Key Name="HEATRECOVERY:ELECTRICITY" - not found.
   ** Warning ** Output:Meter: invalid Key Name="HEATING:NATURALGAS" - not found.
   ** Warning ** Output:Meter: invalid Key Name="WATERSYSTEMS:NATURALGAS" - not found.
   ** Warning ** Output:Meter: invalid Key Name="PROPANE:FACILITY" - not found.
   ** Warning ** Output:Meter: invalid Key Name="HEATING:PROPANE" - not found.
   ************* Testing Individual Branch Integrity
   ************* All Branches passed integrity testing
   ************* Testing Individual Supply Air Path Integrity
   ************* All Supply Air Paths passed integrity testing
   ************* Testing Individual Return Air Path Integrity
   ************* All Return Air Paths passed integrity testing
   ************* No node connection errors were found.
   ************* Beginning Simulation
   ** Warning ** AirflowNetwork::Solver::validate_distribution: Heat pump water heater is simulated along with an AirflowNetwork but is not included in the AirflowNetwork.
   ** Warning ** CalcEquipmentFlowRates: "TOTAL HOT WATER LOAD" - Target water temperature is greater than the hot water temperature by (1.65 C)
   **   ~~~   **  Environment=EXTREME_WINTER, at Simulation time=01/08 06:00 - 06:15
   **   ~~~   ** ...target water temperature     = 53.33 C
   **   ~~~   ** ...hot water temperature        = 51.68 C
   **   ~~~   ** ...Target water temperature should be less than or equal to the hot water temperature. Verify temperature setpoints and schedules.
   ** Warning ** SimHVAC: Maximum iterations (20) exceeded for all HVAC loops, at EXTREME_WINTER, 01/14 11:32 - 11:34
   **   ~~~   ** The solution for one or more of the Air Loop HVAC systems did not appear to converge
   **   ~~~   ** Air System Named = CENTRAL SYSTEM did not converge for mass flow rate
   **   ~~~   ** Check values should be zero. Most Recent values listed first.
   **   ~~~   ** Demand-to-Supply interface mass flow rate check value iteration history trace: 8.568913E-002,8.568913E-002,8.568913E-002,8.568913E-002,8.568913E-002,8.568913E-002,8.568913E-002,8.568913E-002,8.568913E-002,8.568913E-002,
   **   ~~~   ** Supply-to-demand interface deck 1 mass flow rate check value iteration history trace: 8.568913E-002,8.568913E-002,8.568913E-002,8.568913E-002,8.568913E-002,8.568913E-002,8.568913E-002,8.568913E-002,8.568913E-002,8.568913E-002,
   **   ~~~   ** Air System Named = CENTRAL SYSTEM did not converge for energy
   **   ~~~   ** Check values should be zero. Most Recent values listed first.
   **   ~~~   ** Demand-to-Supply interface energy check value iteration history trace: 1698.199858,1698.199858,1698.199858,1698.199858,1698.199858,1698.199857,1698.199857,1698.199857,1698.199857,1698.199857,
   **   ~~~   ** Supply-to-demand interface deck 1 energy check value iteration history trace: 2699.103695,2699.103695,2699.103695,2699.103695,2699.103695,2699.103695,2699.103695,2699.103694,2699.103694,2699.103694,
   ** Severe  ** CheckWarmupConvergence: Loads Initialization, Zone="LIVING" did not converge after 25 warmup days.
   **   ~~~   ** See Warmup Convergence Information in .eio file for details.
   **   ~~~   ** ...Environment(SizingPeriod)="EXTREME_SUMMER"
   **   ~~~   ** ..Max Temp Comparison = 1.33E-002 vs Temperature Convergence Tolerance=5.00E-002 - Pass Convergence
   **   ~~~   ** ..Min Temp Comparison = 1.22E-003 vs Temperature Convergence Tolerance=5.00E-002 - Pass Convergence
   **   ~~~   ** ..Max Heat Load Comparison = 9.5767E-004 vs Loads Convergence Tolerance=5.00E-002 - Pass Convergence
   **   ~~~   ** ..Max Cool Load Comparison = 0.1556 vs Loads Convergence Tolerance=5.00E-002 - Fail Convergence
   ** Warning ** SimHVAC: Maximum iterations (20) exceeded for all HVAC loops, at EXTREME_SUMMER, 08/02 06:53 - 07:00
   **   ~~~   ** The solution for one or more of the Air Loop HVAC systems did not appear to converge
   **   ~~~   ** Air System Named = CENTRAL SYSTEM did not converge for mass flow rate
   **   ~~~   ** Check values should be zero. Most Recent values listed first.
   **   ~~~   ** Demand-to-Supply interface mass flow rate check value iteration history trace: 4.458773E-002,4.458773E-002,4.458773E-002,4.458773E-002,4.458773E-002,4.458773E-002,4.458773E-002,4.458773E-002,4.458773E-002,4.458773E-002,
   **   ~~~   ** Supply-to-demand interface deck 1 mass flow rate check value iteration history trace: 4.458773E-002,4.458773E-002,4.458773E-002,4.458773E-002,4.458773E-002,4.458773E-002,4.458773E-002,4.458773E-002,4.458773E-002,4.458773E-002,
   **   ~~~   ** Air System Named = CENTRAL SYSTEM did not converge for energy
   **   ~~~   ** Check values should be zero. Most Recent values listed first.
   **   ~~~   ** Demand-to-Supply interface energy check value iteration history trace: 1048.243499,1048.243499,1048.243500,1048.243500,1048.243501,1048.243501,1048.243502,1048.243502,1048.243503,1048.243503,
   **   ~~~   ** Supply-to-demand interface deck 1 energy check value iteration history trace: 561.698692,561.698692,561.698692,561.698692,561.698693,561.698693,561.698693,561.698693,561.698694,561.698694,
   ** Warning ** SimHVAC: Maximum iterations (20) exceeded for all HVAC loops, at ANNUAL, 01/14 11:30 - 11:32
   **   ~~~   ** The solution for one or more of the Air Loop HVAC systems did not appear to converge
   **   ~~~   ** Air System Named = CENTRAL SYSTEM did not converge for mass flow rate
   **   ~~~   ** Check values should be zero. Most Recent values listed first.
   **   ~~~   ** Demand-to-Supply interface mass flow rate check value iteration history trace: 7.377035E-002,7.377035E-002,7.377035E-002,7.377035E-002,7.377035E-002,7.377035E-002,7.377035E-002,7.377035E-002,7.377035E-002,7.377035E-002,
   **   ~~~   ** Supply-to-demand interface deck 1 mass flow rate check value iteration history trace: 7.377035E-002,7.377035E-002,7.377035E-002,7.377035E-002,7.377035E-002,7.377035E-002,7.377035E-002,7.377035E-002,7.377035E-002,7.377035E-002,
   **   ~~~   ** Air System Named = CENTRAL SYSTEM did not converge for energy
   **   ~~~   ** Check values should be zero. Most Recent values listed first.
   **   ~~~   ** Demand-to-Supply interface energy check value iteration history trace: 1461.918390,1461.918390,1461.918390,1461.918390,1461.918390,1461.918389,1461.918389,1461.918389,1461.918389,1461.918389,
   **   ~~~   ** Supply-to-demand interface deck 1 energy check value iteration history trace: 2323.711654,2323.711654,2323.711654,2323.711654,2323.711654,2323.711654,2323.711654,2323.711653,2323.711653,2323.711653,
   ** Warning ** SimHVAC: Maximum iterations (20) exceeded for all HVAC loops, at ANNUAL, 03/12 19:30 - 19:45
   **   ~~~   ** The solution for one or more of the Air Loop HVAC systems did not appear to converge
   **   ~~~   ** Air System Named = CENTRAL SYSTEM did not converge for mass flow rate
   **   ~~~   ** Check values should be zero. Most Recent values listed first.
   **   ~~~   ** Demand-to-Supply interface mass flow rate check value iteration history trace: 0.130038,0.130038,0.130038,0.130038,0.130038,0.130038,0.130038,0.130038,0.130038,0.130038,
   **   ~~~   ** Supply-to-demand interface deck 1 mass flow rate check value iteration history trace: 0.130038,0.130038,0.130038,0.130038,0.130038,0.130038,0.130038,0.130038,0.130038,0.130038,
   **   ~~~   ** Air System Named = CENTRAL SYSTEM did not converge for energy
   **   ~~~   ** Check values should be zero. Most Recent values listed first.
   **   ~~~   ** Demand-to-Supply interface energy check value iteration history trace: 2571.993546,2571.993546,2571.993546,2571.993546,2571.993546,2571.993546,2571.993545,2571.993545,2571.993545,2571.993545,
   **   ~~~   ** Supply-to-demand interface deck 1 energy check value iteration history trace: 3888.312598,3888.312598,3888.312597,3888.312597,3888.312597,3888.312597,3888.312596,3888.312596,3888.312596,3888.312595,
   ** Warning ** SimHVAC: Maximum iterations (20) exceeded for all HVAC loops, at ANNUAL, 03/16 07:30 - 07:38
   **   ~~~   ** The solution for one or more of the Air Loop HVAC systems did not appear to converge
   **   ~~~   ** Air System Named = CENTRAL SYSTEM did not converge for mass flow rate
   **   ~~~   ** Check values should be zero. Most Recent values listed first.
   **   ~~~   ** Demand-to-Supply interface mass flow rate check value iteration history trace: 5.640023E-002,5.640023E-002,5.640023E-002,5.640023E-002,5.640023E-002,5.640023E-002,5.640023E-002,5.640023E-002,5.640023E-002,5.640023E-002,
   **   ~~~   ** Supply-to-demand interface deck 1 mass flow rate check value iteration history trace: 5.640023E-002,5.640023E-002,5.640023E-002,5.640023E-002,5.640023E-002,5.640023E-002,5.640023E-002,5.640023E-002,5.640023E-002,5.640023E-002,
   **   ~~~   ** Air System Named = CENTRAL SYSTEM did not converge for energy
   **   ~~~   ** Check values should be zero. Most Recent values listed first.
   **   ~~~   ** Demand-to-Supply interface energy check value iteration history trace: 1104.072369,1104.072369,1104.072369,1104.072369,1104.072369,1104.072369,1104.072369,1104.072369,1104.072369,1104.072369,
   **   ~~~   ** Supply-to-demand interface deck 1 energy check value iteration history trace: 2105.952426,2105.952426,2105.952426,2105.952426,2105.952426,2105.952426,2105.952426,2105.952425,2105.952425,2105.952425,
   ** Warning ** SimHVAC: Maximum iterations (20) exceeded for all HVAC loops, at ANNUAL, 03/18 09:28 - 09:30
   **   ~~~   ** The solution for one or more of the Air Loop HVAC systems did not appear to converge
   **   ~~~   ** Air System Named = CENTRAL SYSTEM did not converge for mass flow rate
   **   ~~~   ** Check values should be zero. Most Recent values listed first.
   **   ~~~   ** Demand-to-Supply interface mass flow rate check value iteration history trace: 7.339135E-002,7.339135E-002,7.339135E-002,7.339135E-002,7.339135E-002,7.339135E-002,7.339135E-002,7.339135E-002,7.339135E-002,7.339135E-002,
   **   ~~~   ** Supply-to-demand interface deck 1 mass flow rate check value iteration history trace: 7.339135E-002,7.339135E-002,7.339135E-002,7.339135E-002,7.339135E-002,7.339135E-002,7.339135E-002,7.339135E-002,7.339135E-002,7.339135E-002,
   **   ~~~   ** Air System Named = CENTRAL SYSTEM did not converge for energy
   **   ~~~   ** Check values should be zero. Most Recent values listed first.
   **   ~~~   ** Demand-to-Supply interface energy check value iteration history trace: 1443.130440,1443.130440,1443.130440,1443.130440,1443.130440,1443.130440,1443.130440,1443.130440,1443.130440,1443.130440,
   **   ~~~   ** Supply-to-demand interface deck 1 energy check value iteration history trace: 2641.783555,2641.783555,2641.783554,2641.783554,2641.783554,2641.783554,2641.783554,2641.783554,2641.783554,2641.783554,
   ** Warning ** SimHVAC: Maximum iterations (20) exceeded for all HVAC loops, at ANNUAL, 05/01 06:30 - 06:38
   **   ~~~   ** The solution for one or more of the Air Loop HVAC systems did not appear to converge
   **   ~~~   ** Air System Named = CENTRAL SYSTEM did not converge for mass flow rate
   **   ~~~   ** Check values should be zero. Most Recent values listed first.
   **   ~~~   ** Demand-to-Supply interface mass flow rate check value iteration history trace: 5.681006E-002,5.681006E-002,5.681006E-002,5.681006E-002,5.681006E-002,5.681006E-002,5.681006E-002,5.681006E-002,5.681006E-002,5.681006E-002,
   **   ~~~   ** Supply-to-demand interface deck 1 mass flow rate check value iteration history trace: 5.681006E-002,5.681006E-002,5.681006E-002,5.681006E-002,5.681006E-002,5.681006E-002,5.681006E-002,5.681006E-002,5.681006E-002,5.681006E-002,
   **   ~~~   ** Air System Named = CENTRAL SYSTEM did not converge for energy
   **   ~~~   ** Check values should be zero. Most Recent values listed first.
   **   ~~~   ** Demand-to-Supply interface energy check value iteration history trace: 1125.876849,1125.876849,1125.876849,1125.876849,1125.876849,1125.876849,1125.876849,1125.876849,1125.876849,1125.876849,
   **   ~~~   ** Supply-to-demand interface deck 1 energy check value iteration history trace: 2076.273073,2076.273072,2076.273072,2076.273072,2076.273072,2076.273072,2076.273072,2076.273072,2076.273072,2076.273072,
   ** Warning ** SimHVAC: Maximum iterations (20) exceeded for all HVAC loops, at ANNUAL, 10/16 07:51 - 07:54
   **   ~~~   ** The solution for one or more of the Air Loop HVAC systems did not appear to converge
   **   ~~~   ** Air System Named = CENTRAL SYSTEM did not converge for mass flow rate
   **   ~~~   ** Check values should be zero. Most Recent values listed first.
   **   ~~~   ** Demand-to-Supply interface mass flow rate check value iteration history trace: 7.037913E-002,7.037913E-002,7.037913E-002,7.037913E-002,7.037913E-002,7.037913E-002,7.037913E-002,7.037913E-002,7.037913E-002,7.037913E-002,
   **   ~~~   ** Supply-to-demand interface deck 1 mass flow rate check value iteration history trace: 7.037913E-002,7.037913E-002,7.037913E-002,7.037913E-002,7.037913E-002,7.037913E-002,7.037913E-002,7.037913E-002,7.037913E-002,7.037913E-002,
   **   ~~~   ** Air System Named = CENTRAL SYSTEM did not converge for energy
   **   ~~~   ** Check values should be zero. Most Recent values listed first.
   **   ~~~   ** Demand-to-Supply interface energy check value iteration history trace: 1391.312428,1391.312428,1391.312428,1391.312428,1391.312428,1391.312428,1391.312428,1391.312428,1391.312427,1391.312427,
   **   ~~~   ** Supply-to-demand interface deck 1 energy check value iteration history trace: 2423.936522,2423.936522,2423.936522,2423.936522,2423.936522,2423.936521,2423.936521,2423.936521,2423.936521,2423.936521,
   ** Warning ** SimHVAC: Maximum iterations (20) exceeded for all HVAC loops, at ANNUAL, 12/02 18:30 - 18:38
   **   ~~~   ** The solution for one or more of the Air Loop HVAC systems did not appear to converge
   **   ~~~   ** Air System Named = CENTRAL SYSTEM did not converge for mass flow rate
   **   ~~~   ** Check values should be zero. Most Recent values listed first.
   **   ~~~   ** Demand-to-Supply interface mass flow rate check value iteration history trace: 6.621999E-002,6.621999E-002,6.621999E-002,6.621999E-002,6.621999E-002,6.621999E-002,6.621999E-002,6.621999E-002,6.621999E-002,6.621999E-002,
   **   ~~~   ** Supply-to-demand interface deck 1 mass flow rate check value iteration history trace: 6.621999E-002,6.621999E-002,6.621999E-002,6.621999E-002,6.621999E-002,6.621999E-002,6.621999E-002,6.621999E-002,6.621999E-002,6.621999E-002,
   **   ~~~   ** Air System Named = CENTRAL SYSTEM did not converge for energy
   **   ~~~   ** Check values should be zero. Most Recent values listed first.
   **   ~~~   ** Demand-to-Supply interface energy check value iteration history trace: 1309.293082,1309.293081,1309.293081,1309.293081,1309.293081,1309.293081,1309.293081,1309.293081,1309.293081,1309.293081,
   **   ~~~   ** Supply-to-demand interface deck 1 energy check value iteration history trace: 2390.566140,2390.566140,2390.566140,2390.566140,2390.566140,2390.566140,2390.566140,2390.566140,2390.566140,2390.566140,
   ** Warning ** SimHVAC: Maximum iterations (20) exceeded for all HVAC loops, at ANNUAL, 12/02 18:45 - 19:00
   **   ~~~   ** The solution for one or more of the Air Loop HVAC systems did not appear to converge
   **   ~~~   ** Air System Named = CENTRAL SYSTEM did not converge for mass flow rate
   **   ~~~   ** Check values should be zero. Most Recent values listed first.
   **   ~~~   ** Demand-to-Supply interface mass flow rate check value iteration history trace: 6.737489E-002,6.737489E-002,6.737489E-002,6.737489E-002,6.737489E-002,6.737489E-002,6.737489E-002,6.737489E-002,6.737489E-002,6.737489E-002,
   **   ~~~   ** Supply-to-demand interface deck 1 mass flow rate check value iteration history trace: 6.737489E-002,6.737489E-002,6.737489E-002,6.737489E-002,6.737489E-002,6.737489E-002,6.737489E-002,6.737489E-002,6.737489E-002,6.737489E-002,
   **   ~~~   ** Air System Named = CENTRAL SYSTEM did not converge for energy
   **   ~~~   ** Check values should be zero. Most Recent values listed first.
   **   ~~~   ** Demand-to-Supply interface energy check value iteration history trace: 1331.729234,1331.729234,1331.729234,1331.729234,1331.729234,1331.729234,1331.729234,1331.729234,1331.729234,1331.729234,
   **   ~~~   ** Supply-to-demand interface deck 1 energy check value iteration history trace: 2431.989761,2431.989761,2431.989761,2431.989761,2431.989761,2431.989761,2431.989760,2431.989760,2431.989760,2431.989760,
   ** Warning ** SimHVAC: Maximum iterations (20) exceeded for all HVAC loops, at ANNUAL, 12/18 20:15 - 20:30
   **   ~~~   ** The solution for one or more of the Air Loop HVAC systems did not appear to converge
   **   ~~~   ** Air System Named = CENTRAL SYSTEM did not converge for mass flow rate
   **   ~~~   ** Check values should be zero. Most Recent values listed first.
   **   ~~~   ** Demand-to-Supply interface mass flow rate check value iteration history trace: 7.286563E-002,7.286563E-002,7.286563E-002,7.286563E-002,7.286563E-002,7.286563E-002,7.286563E-002,7.286563E-002,7.286563E-002,7.286563E-002,
   **   ~~~   ** Supply-to-demand interface deck 1 mass flow rate check value iteration history trace: 7.286563E-002,7.286563E-002,7.286563E-002,7.286563E-002,7.286563E-002,7.286563E-002,7.286563E-002,7.286563E-002,7.286563E-002,7.286563E-002,
   **   ~~~   ** Air System Named = CENTRAL SYSTEM did not converge for energy
   **   ~~~   ** Check values should be zero. Most Recent values listed first.
   **   ~~~   ** Demand-to-Supply interface energy check value iteration history trace: 1440.196683,1440.196683,1440.196683,1440.196683,1440.196683,1440.196683,1440.196683,1440.196683,1440.196683,1440.196683,
   **   ~~~   ** Supply-to-demand interface deck 1 energy check value iteration history trace: 2569.542892,2569.542892,2569.542892,2569.542892,2569.542892,2569.542892,2569.542891,2569.542891,2569.542891,2569.542891,
   ************* Simulation Error Summary *************
   ** Warning ** The following Report Variables were requested but not generated -- check.rdd file
   **   ~~~   ** Either the IDF did not contain these elements, the variable name is misspelled,
   **   ~~~   ** or the requested variable is an advanced output which requires Output : Diagnostics, DisplayAdvancedReportVariables;
   ************* Key=*, VarName=BASEBOARD TOTAL HEATING ENERGY, Frequency=
   ************* Key=*, VarName=WATER HEATER NATURALGAS ENERGY, Frequency=
   ************* Key=*, VarName=COOLING COIL TOTAL HEATING ENERGY, Frequency=
   ************* There are 34 unused schedules in input.
   ************* There are 388 unused week schedules in input.
   ************* There are 396 unused day schedules in input.
   ************* Use Output:Diagnostics,DisplayUnusedSchedules; to see them.
   *************
   ************* ===== Recurring Error Summary =====
   ************* The following recurring error messages occurred.
   *************
   *************  ** Warning ** "TOTAL HOT WATER LOAD" - Target water temperature should be less than or equal to the hot water temperature error continues...
   *************  **   ~~~   **   This error occurred 108233 total times;
   *************  **   ~~~   **   during Warmup 0 times;
   *************  **   ~~~   **   during Sizing 0 times.
   *************  **   ~~~   **   Max=9.15064  Min=1.973788E-004
   *************
   *************
   ************* ===== Final Error Summary =====
   ************* The following error categories occurred.  Consider correcting or noting.
   ************* Loads Initialization did not Converge
   ************* ..1) very high thermal mass such as very thick concrete (solution: increase max number of warmup
   ************* ..   days in the BUILDING object);
   ************* ..2) moderate mass and inadequate space conditioning such that the building keeps getting warmer
   ************* ..   and warmer on successive days (solution: add HVAC, check building thermal properties,
   ************* ..   check if infiltration is included, make sure HVAC properly controlled);
   ************* ..3) a soil layer modeled below the concrete slab - (solution remove this layer and read about
   ************* ..   ground temperatures in the Auxiliary Programs document).
   ************* ..4) unreasonable (too small) limits in the BUILDING object for temperature (.4 default) or
   ************* ..   loads tolerances (.04 default)
   ************* Nominally Unused Constructions
   ************* ..The nominally unused constructions warning is provided to alert you to potential conditions that can cause
   ************* ..extra time during simulation. Each construction is calculated by the algorithm indicated in the HeatBalanceAlgorithm
   ************* ..object. You may remove the constructions indicated (when you use the DisplayExtraWarnings option).
   *************
   ************* EnergyPlus Warmup Error Summary. During Warmup: 1 Warning; 1 Severe Errors.
   ************* EnergyPlus Sizing Error Summary. During Sizing: 4 Warning; 0 Severe Errors.
   ************* EnergyPlus Completed Successfully-- 108261 Warning; 1 Severe Errors; Elapsed Time=00hr 06min 30.97sec
