Program Version,EnergyPlus, Version 22.2.0-c249759bad, YMD=2023.09.01 19:28,
   ************* Beginning Zone Sizing Calculations
   ** Warning ** ProcessScheduleInput: Schedule:Constant="ALWAYS ON DISCRETE", Schedule Type Limits Name="ONOFF" not found -- will not be validated
   ** Warning ** Foundation:Kiva="KIVA FOUNDATION", no Interior Horizontal Insulation Material Name defined
   **   ~~~   ** Interior Horizontal Insulation Depth will not be used.
   ** Warning ** CheckUsedConstructions: There are 15 nominally unused constructions in input.
   **   ~~~   ** Each Unused construction is shown.
   ************* Construction=INTERIOR FLOOR
   ************* Construction=INTERIOR WINDOW
   ************* Construction=EXTERIOR DOOR
   ************* Construction=INTERIOR DOOR
   ************* Construction=GABLE CONSTRUCTION
   ************* Construction=CRAWL_FLOOR
   ************* Construction=INSULATED PIPE
   ************* Construction=PLAIN PIPE
   ************* Construction=TDD PIPE
   ************* Construction=TDD DOME
   ************* Construction=TDD DIFFUSER
   ************* Construction=CRAWL WALL
   ************* Construction=CEILING-FLOOR-LAYER
   ************* Construction=SLAB CONSTRUCTION W FULL R10 INSULATION
   ************* Construction=SLAB CONSTRUCTION W FULL R5 INSULATION
   ** Warning ** GetDXCoils: Coil:Heating:DX:SingleSpeed="DX_HEATING_COIL" curve values
   **   ~~~   ** ... Defrost Energy Input Ratio Function of Temperature Curve Name = DEFROSTEIR output is not equal to 1.0 (+ or - 10%) at rated conditions.
   **   ~~~   ** ... Curve output at rated conditions = 0.152
   ************* Beginning System Sizing Calculations
   ************* Beginning Plant Sizing Calculations
   ** Warning ** SizeDXCoil Coil:Cooling:DX:SingleSpeed DX_COOLING_COIL
   **   ~~~   ** ...Gross Rated Total Cooling Capacity [W] will be limited by the maximum rated volume flow per rated total capacity ratio.
   **   ~~~   ** ...DX coil volume flow rate ( m3/s ) = 0.473255
   **   ~~~   ** ...Requested capacity ( W ) = 6945.593
   **   ~~~   ** ...Requested flow/capacity ratio ( m3/s/W ) = 6.813E-005
   **   ~~~   ** ...Maximum flow/capacity ratio ( m3/s/W ) = 6.041E-005
   **   ~~~   ** ...Adjusted capacity ( W ) = 7834.062
   ** Warning ** Coil:WaterHeating:AirToWaterHeatPump:Wrapped "HEAT PUMP WATER HEATER EVAPORATOR": Rated air volume flow rate per watt of rated total water heating capacity is out of range
   **   ~~~   ** Min Rated Vol Flow Per Watt=[4.027E-005], Rated Vol Flow Per Watt=[1.510E-004], Max Rated Vol Flow Per Watt=[8.056E-005]. See Input-Output Reference Manual for valid range.
   ************* SizeFan: : Potential issue with equipment sizing for Fan:OnOff HEAT PUMP WATER HEATER FAN
   **   ~~~   ** User-Specified Maximum Flow Rate [m3/s] = 0.22653
   **   ~~~   ** differs from Design Size Maximum Flow Rate [m3/s] = 7.55250E-002
   **   ~~~   ** This may, or may not, indicate mismatched component sizes.
   **   ~~~   ** Verify that the value entered is intended and is consistent with other components.
   ** Warning ** Water heater = WATER HEATER TANK:  Recovery Efficiency and Energy Factor could not be calculated during the test for standard ratings
   **   ~~~   ** Setpoint was never recovered and/or heater never turned on
   ** Warning ** Check input. Pump nominal power or motor efficiency is set to 0, for pump=MAINS PRESSURE
   ** Warning ** Output:Meter: invalid Key Name="ELECTRIC_RANGE:INTERIOREQUIPMENT:ELECTRICITY" - not found.
   ** Warning ** Output:Meter: invalid Key Name="ELECTRIC_DRYER:INTERIOREQUIPMENT:ELECTRICITY" - not found.
   ** Warning ** Output:Meter: invalid Key Name="HEATRECOVERY:ELECTRICITY" - not found.
   ** Warning ** Output:Meter: invalid Key Name="HEATING:NATURALGAS" - not found.
   ** Warning ** Output:Meter: invalid Key Name="WATERSYSTEMS:NATURALGAS" - not found.
   ** Warning ** Output:Meter: invalid Key Name="PROPANE:FACILITY" - not found.
   ** Warning ** Output:Meter: invalid Key Name="HEATING:PROPANE" - not found.
   ************* Testing Individual Branch Integrity
   ************* All Branches passed integrity testing
   ************* Testing Individual Supply Air Path Integrity
   ************* All Supply Air Paths passed integrity testing
   ************* Testing Individual Return Air Path Integrity
   ************* All Return Air Paths passed integrity testing
   ************* No node connection errors were found.
   ************* Beginning Simulation
   ** Warning ** AirflowNetwork::Solver::validate_distribution: Heat pump water heater is simulated along with an AirflowNetwork but is not included in the AirflowNetwork.
   ** Warning ** CalcEquipmentFlowRates: "TOTAL HOT WATER LOAD" - Target water temperature is greater than the hot water temperature by (0.24 C)
   **   ~~~   **  Environment=EXTREME_WINTER, at Simulation time=01/06 06:00 - 06:15
   **   ~~~   ** ...target water temperature     = 53.33 C
   **   ~~~   ** ...hot water temperature        = 53.09 C
   **   ~~~   ** ...Target water temperature should be less than or equal to the hot water temperature. Verify temperature setpoints and schedules.
   ** Warning ** SimHVAC: Maximum iterations (20) exceeded for all HVAC loops, at EXTREME_WINTER, 01/06 13:49 - 13:52
   **   ~~~   ** The solution for one or more of the Air Loop HVAC systems did not appear to converge
   **   ~~~   ** Air System Named = CENTRAL SYSTEM did not converge for mass flow rate
   **   ~~~   ** Check values should be zero. Most Recent values listed first.
   **   ~~~   ** Demand-to-Supply interface mass flow rate check value iteration history trace: 7.970608E-002,7.970608E-002,7.970608E-002,7.970608E-002,7.970608E-002,7.970608E-002,7.970608E-002,7.970608E-002,7.970608E-002,7.970608E-002,
   **   ~~~   ** Supply-to-demand interface deck 1 mass flow rate check value iteration history trace: 7.970608E-002,7.970608E-002,7.970608E-002,7.970608E-002,7.970608E-002,7.970608E-002,7.970608E-002,7.970608E-002,7.970608E-002,7.970608E-002,
   **   ~~~   ** Air System Named = CENTRAL SYSTEM did not converge for energy
   **   ~~~   ** Check values should be zero. Most Recent values listed first.
   **   ~~~   ** Demand-to-Supply interface energy check value iteration history trace: 1579.346942,1579.346942,1579.346942,1579.346942,1579.346942,1579.346941,1579.346941,1579.346941,1579.346941,1579.346941,
   **   ~~~   ** Supply-to-demand interface deck 1 energy check value iteration history trace: 2371.355517,2371.355517,2371.355517,2371.355517,2371.355517,2371.355517,2371.355516,2371.355516,2371.355516,2371.355516,
   ** Warning ** SimHVAC: Maximum iterations (20) exceeded for all HVAC loops, at ANNUAL, 01/11 12:54 - 12:57
   **   ~~~   ** The solution for one or more of the Air Loop HVAC systems did not appear to converge
   **   ~~~   ** Air System Named = CENTRAL SYSTEM did not converge for mass flow rate
   **   ~~~   ** Check values should be zero. Most Recent values listed first.
   **   ~~~   ** Demand-to-Supply interface mass flow rate check value iteration history trace: 6.297434E-002,6.297434E-002,6.297434E-002,6.297434E-002,6.297434E-002,6.297434E-002,6.297434E-002,6.297434E-002,6.297434E-002,6.297434E-002,
   **   ~~~   ** Supply-to-demand interface deck 1 mass flow rate check value iteration history trace: 6.297434E-002,6.297434E-002,6.297434E-002,6.297434E-002,6.297434E-002,6.297434E-002,6.297434E-002,6.297434E-002,6.297434E-002,6.297434E-002,
   **   ~~~   ** Air System Named = CENTRAL SYSTEM did not converge for energy
   **   ~~~   ** Check values should be zero. Most Recent values listed first.
   **   ~~~   ** Demand-to-Supply interface energy check value iteration history trace: 1246.477027,1246.477027,1246.477027,1246.477027,1246.477027,1246.477027,1246.477027,1246.477026,1246.477026,1246.477026,
   **   ~~~   ** Supply-to-demand interface deck 1 energy check value iteration history trace: 1994.616708,1994.616708,1994.616708,1994.616708,1994.616708,1994.616708,1994.616708,1994.616708,1994.616708,1994.616707,
   ** Warning ** SimHVAC: Maximum iterations (20) exceeded for all HVAC loops, at ANNUAL, 01/15 11:51 - 11:54
   **   ~~~   ** The solution for one or more of the Air Loop HVAC systems did not appear to converge
   **   ~~~   ** Air System Named = CENTRAL SYSTEM did not converge for mass flow rate
   **   ~~~   ** Check values should be zero. Most Recent values listed first.
   **   ~~~   ** Demand-to-Supply interface mass flow rate check value iteration history trace: 6.061702E-002,6.061702E-002,6.061702E-002,6.061702E-002,6.061702E-002,6.061702E-002,6.061702E-002,6.061702E-002,6.061702E-002,6.061702E-002,
   **   ~~~   ** Supply-to-demand interface deck 1 mass flow rate check value iteration history trace: 6.061702E-002,6.061702E-002,6.061702E-002,6.061702E-002,6.061702E-002,6.061702E-002,6.061702E-002,6.061702E-002,6.061702E-002,6.061702E-002,
   **   ~~~   ** Air System Named = CENTRAL SYSTEM did not converge for energy
   **   ~~~   ** Check values should be zero. Most Recent values listed first.
   **   ~~~   ** Demand-to-Supply interface energy check value iteration history trace: 1199.144876,1199.144876,1199.144876,1199.144876,1199.144876,1199.144876,1199.144876,1199.144876,1199.144876,1199.144876,
   **   ~~~   ** Supply-to-demand interface deck 1 energy check value iteration history trace: 2107.338407,2107.338407,2107.338407,2107.338407,2107.338407,2107.338407,2107.338407,2107.338407,2107.338407,2107.338407,
   ** Warning ** SimHVAC: Maximum iterations (20) exceeded for all HVAC loops, at ANNUAL, 02/12 12:45 - 13:00
   **   ~~~   ** The solution for one or more of the Air Loop HVAC systems did not appear to converge
   **   ~~~   ** Air System Named = CENTRAL SYSTEM did not converge for mass flow rate
   **   ~~~   ** Check values should be zero. Most Recent values listed first.
   **   ~~~   ** Demand-to-Supply interface mass flow rate check value iteration history trace: 5.813523E-002,5.813523E-002,5.813523E-002,5.813523E-002,5.813523E-002,5.813523E-002,5.813523E-002,5.813523E-002,5.813523E-002,5.813523E-002,
   **   ~~~   ** Supply-to-demand interface deck 1 mass flow rate check value iteration history trace: 5.813523E-002,5.813523E-002,5.813523E-002,5.813523E-002,5.813523E-002,5.813523E-002,5.813523E-002,5.813523E-002,5.813523E-002,5.813523E-002,
   **   ~~~   ** Air System Named = CENTRAL SYSTEM did not converge for energy
   **   ~~~   ** Check values should be zero. Most Recent values listed first.
   **   ~~~   ** Demand-to-Supply interface energy check value iteration history trace: 1152.029052,1152.029052,1152.029052,1152.029052,1152.029052,1152.029052,1152.029052,1152.029052,1152.029052,1152.029052,
   **   ~~~   ** Supply-to-demand interface deck 1 energy check value iteration history trace: 2000.773394,2000.773394,2000.773393,2000.773393,2000.773393,2000.773393,2000.773393,2000.773393,2000.773393,2000.773393,
   ** Warning ** SimHVAC: Maximum iterations (20) exceeded for all HVAC loops, at ANNUAL, 03/11 20:38 - 20:45
   **   ~~~   ** The solution for one or more of the Air Loop HVAC systems did not appear to converge
   **   ~~~   ** Air System Named = CENTRAL SYSTEM did not converge for mass flow rate
   **   ~~~   ** Check values should be zero. Most Recent values listed first.
   **   ~~~   ** Demand-to-Supply interface mass flow rate check value iteration history trace: 9.223683E-002,9.223683E-002,9.223683E-002,9.223683E-002,9.223683E-002,9.223683E-002,9.223683E-002,9.223683E-002,9.223683E-002,9.223683E-002,
   **   ~~~   ** Supply-to-demand interface deck 1 mass flow rate check value iteration history trace: 9.223683E-002,9.223683E-002,9.223683E-002,9.223683E-002,9.223683E-002,9.223683E-002,9.223683E-002,9.223683E-002,9.223683E-002,9.223683E-002,
   **   ~~~   ** Air System Named = CENTRAL SYSTEM did not converge for energy
   **   ~~~   ** Check values should be zero. Most Recent values listed first.
   **   ~~~   ** Demand-to-Supply interface energy check value iteration history trace: 1826.678269,1826.678269,1826.678269,1826.678269,1826.678269,1826.678268,1826.678268,1826.678268,1826.678268,1826.678268,
   **   ~~~   ** Supply-to-demand interface deck 1 energy check value iteration history trace: 2707.848052,2707.848052,2707.848051,2707.848051,2707.848051,2707.848051,2707.848051,2707.848050,2707.848050,2707.848050,
   ** Warning ** SimHVAC: Maximum iterations (20) exceeded for all HVAC loops, at ANNUAL, 03/21 09:00 - 09:02
   **   ~~~   ** The solution for one or more of the Air Loop HVAC systems did not appear to converge
   **   ~~~   ** Air System Named = CENTRAL SYSTEM did not converge for mass flow rate
   **   ~~~   ** Check values should be zero. Most Recent values listed first.
   **   ~~~   ** Demand-to-Supply interface mass flow rate check value iteration history trace: 6.237451E-002,6.237451E-002,6.237451E-002,6.237451E-002,6.237451E-002,6.237451E-002,6.237451E-002,6.237451E-002,6.237451E-002,6.237451E-002,
   **   ~~~   ** Supply-to-demand interface deck 1 mass flow rate check value iteration history trace: 6.237451E-002,6.237451E-002,6.237451E-002,6.237451E-002,6.237451E-002,6.237451E-002,6.237451E-002,6.237451E-002,6.237451E-002,6.237451E-002,
   **   ~~~   ** Air System Named = CENTRAL SYSTEM did not converge for energy
   **   ~~~   ** Check values should be zero. Most Recent values listed first.
   **   ~~~   ** Demand-to-Supply interface energy check value iteration history trace: 1236.074452,1236.074452,1236.074452,1236.074452,1236.074452,1236.074452,1236.074452,1236.074452,1236.074452,1236.074452,
   **   ~~~   ** Supply-to-demand interface deck 1 energy check value iteration history trace: 2239.947854,2239.947854,2239.947854,2239.947854,2239.947854,2239.947854,2239.947854,2239.947853,2239.947853,2239.947853,
   ** Warning ** SimHVAC: Maximum iterations (20) exceeded for all HVAC loops, at ANNUAL, 04/06 07:30 - 07:38
   **   ~~~   ** The solution for one or more of the Air Loop HVAC systems did not appear to converge
   **   ~~~   ** Air System Named = CENTRAL SYSTEM did not converge for mass flow rate
   **   ~~~   ** Check values should be zero. Most Recent values listed first.
   **   ~~~   ** Demand-to-Supply interface mass flow rate check value iteration history trace: 6.676036E-002,6.676036E-002,6.676036E-002,6.676036E-002,6.676036E-002,6.676036E-002,6.676036E-002,6.676036E-002,6.676036E-002,6.676036E-002,
   **   ~~~   ** Supply-to-demand interface deck 1 mass flow rate check value iteration history trace: 6.676036E-002,6.676036E-002,6.676036E-002,6.676036E-002,6.676036E-002,6.676036E-002,6.676036E-002,6.676036E-002,6.676036E-002,6.676036E-002,
   **   ~~~   ** Air System Named = CENTRAL SYSTEM did not converge for energy
   **   ~~~   ** Check values should be zero. Most Recent values listed first.
   **   ~~~   ** Demand-to-Supply interface energy check value iteration history trace: 1322.875354,1322.875353,1322.875353,1322.875353,1322.875353,1322.875352,1322.875352,1322.875352,1322.875352,1322.875352,
   **   ~~~   ** Supply-to-demand interface deck 1 energy check value iteration history trace: 2381.708273,2381.708273,2381.708273,2381.708272,2381.708272,2381.708271,2381.708271,2381.708270,2381.708270,2381.708270,
   **   ~~~   ** Node named ZONE INLET NODE shows oscillating temperatures across iterations with a repeated value of 35.503513
   **   ~~~   ** Node named ZONE INLET NODE temperature [C] iteration history trace (most recent first): 35.503513,35.503513,35.503512,35.503512,35.503512,35.503512,35.503511,35.503511,35.503511,35.503511,
   ** Warning ** SimHVAC: Maximum iterations (20) exceeded for all HVAC loops, at ANNUAL, 04/25 17:00 - 17:05
   **   ~~~   ** The solution for one or more of the Air Loop HVAC systems did not appear to converge
   **   ~~~   ** Air System Named = CENTRAL SYSTEM did not converge for mass flow rate
   **   ~~~   ** Check values should be zero. Most Recent values listed first.
   **   ~~~   ** Demand-to-Supply interface mass flow rate check value iteration history trace: 5.465212E-002,5.465212E-002,5.465212E-002,5.465212E-002,5.465212E-002,5.465212E-002,5.465212E-002,5.465212E-002,5.465212E-002,5.465212E-002,
   **   ~~~   ** Supply-to-demand interface deck 1 mass flow rate check value iteration history trace: 5.465212E-002,5.465212E-002,5.465212E-002,5.465212E-002,5.465212E-002,5.465212E-002,5.465212E-002,5.465212E-002,5.465212E-002,5.465212E-002,
   **   ~~~   ** Air System Named = CENTRAL SYSTEM did not converge for energy
   **   ~~~   ** Check values should be zero. Most Recent values listed first.
   **   ~~~   ** Demand-to-Supply interface energy check value iteration history trace: 1078.132268,1078.132268,1078.132268,1078.132268,1078.132268,1078.132268,1078.132268,1078.132268,1078.132268,1078.132268,
   **   ~~~   ** Supply-to-demand interface deck 1 energy check value iteration history trace: 1891.349577,1891.349577,1891.349577,1891.349577,1891.349577,1891.349577,1891.349576,1891.349576,1891.349576,1891.349576,
   **   ~~~   ** Node named ZONE INLET NODE shows oscillating temperatures across iterations with a repeated value of 34.440243
   **   ~~~   ** Node named ZONE INLET NODE temperature [C] iteration history trace (most recent first): 34.440243,34.440243,34.440243,34.440242,34.440242,34.440242,34.440242,34.440241,34.440241,34.440241,
   ** Warning ** SimHVAC: Maximum iterations (20) exceeded for all HVAC loops, at ANNUAL, 05/26 06:55 - 07:00
   **   ~~~   ** The solution for one or more of the Air Loop HVAC systems did not appear to converge
   **   ~~~   ** Air System Named = CENTRAL SYSTEM did not converge for mass flow rate
   **   ~~~   ** Check values should be zero. Most Recent values listed first.
   **   ~~~   ** Demand-to-Supply interface mass flow rate check value iteration history trace: 0.295644,0.295644,0.295644,0.295644,0.295644,0.295644,0.295644,0.295644,0.295644,0.295644,
   **   ~~~   ** Supply-to-demand interface deck 1 mass flow rate check value iteration history trace: 0.295644,0.295644,0.295644,0.295644,0.295644,0.295644,0.295644,0.295644,0.295644,0.295644,
   **   ~~~   ** Air System Named = CENTRAL SYSTEM did not converge for energy
   **   ~~~   ** Check values should be zero. Most Recent values listed first.
   **   ~~~   ** Demand-to-Supply interface energy check value iteration history trace: 7098.156489,7098.156492,7098.156494,7098.156497,7098.156500,7098.156503,7098.156506,7098.156508,7098.156511,7098.156514,
   **   ~~~   ** Supply-to-demand interface deck 1 energy check value iteration history trace: 4270.247184,4270.247185,4270.247187,4270.247189,4270.247190,4270.247192,4270.247194,4270.247195,4270.247197,4270.247199,
   ** Warning ** SimHVAC: Maximum iterations (20) exceeded for all HVAC loops, at ANNUAL, 05/31 08:15 - 08:30
   **   ~~~   ** The solution for one or more of the Air Loop HVAC systems did not appear to converge
   **   ~~~   ** Air System Named = CENTRAL SYSTEM did not converge for mass flow rate
   **   ~~~   ** Check values should be zero. Most Recent values listed first.
   **   ~~~   ** Demand-to-Supply interface mass flow rate check value iteration history trace: 0.128778,0.128778,0.128778,0.128778,0.128778,0.128778,0.128778,0.128778,0.128778,0.128778,
   **   ~~~   ** Supply-to-demand interface deck 1 mass flow rate check value iteration history trace: 0.128778,0.128778,0.128778,0.128778,0.128778,0.128778,0.128778,0.128778,0.128778,0.128778,
   **   ~~~   ** Air System Named = CENTRAL SYSTEM did not converge for energy
   **   ~~~   ** Check values should be zero. Most Recent values listed first.
   **   ~~~   ** Demand-to-Supply interface energy check value iteration history trace: 3053.302420,3053.302421,3053.302422,3053.302422,3053.302423,3053.302424,3053.302425,3053.302425,3053.302426,3053.302427,
   **   ~~~   ** Supply-to-demand interface deck 1 energy check value iteration history trace: 1542.939721,1542.939721,1542.939722,1542.939722,1542.939723,1542.939723,1542.939723,1542.939724,1542.939724,1542.939724,
   ** Warning ** SimHVAC: Maximum iterations (20) exceeded for all HVAC loops, at ANNUAL, 06/04 00:15 - 00:30
   **   ~~~   ** The solution for one or more of the Air Loop HVAC systems did not appear to converge
   **   ~~~   ** Air System Named = CENTRAL SYSTEM did not converge for mass flow rate
   **   ~~~   ** Check values should be zero. Most Recent values listed first.
   **   ~~~   ** Demand-to-Supply interface mass flow rate check value iteration history trace: 9.465068E-002,9.465068E-002,9.465068E-002,9.465068E-002,9.465068E-002,9.465068E-002,9.465068E-002,9.465068E-002,9.465068E-002,9.465068E-002,
   **   ~~~   ** Supply-to-demand interface deck 1 mass flow rate check value iteration history trace: 9.465068E-002,9.465068E-002,9.465068E-002,9.465068E-002,9.465068E-002,9.465068E-002,9.465068E-002,9.465068E-002,9.465068E-002,9.465068E-002,
   **   ~~~   ** Air System Named = CENTRAL SYSTEM did not converge for energy
   **   ~~~   ** Check values should be zero. Most Recent values listed first.
   **   ~~~   ** Demand-to-Supply interface energy check value iteration history trace: 2371.061038,2371.061038,2371.061039,2371.061039,2371.061040,2371.061041,2371.061041,2371.061042,2371.061042,2371.061043,
   **   ~~~   ** Supply-to-demand interface deck 1 energy check value iteration history trace: 1221.981119,1221.981119,1221.981120,1221.981120,1221.981120,1221.981121,1221.981121,1221.981121,1221.981121,1221.981122,
   ** Warning ** SimHVAC: Maximum iterations (20) exceeded for all HVAC loops, at ANNUAL, 10/18 07:15 - 07:20
   **   ~~~   ** The solution for one or more of the Air Loop HVAC systems did not appear to converge
   **   ~~~   ** Air System Named = CENTRAL SYSTEM did not converge for mass flow rate
   **   ~~~   ** Check values should be zero. Most Recent values listed first.
   **   ~~~   ** Demand-to-Supply interface mass flow rate check value iteration history trace: 6.153338E-002,6.153338E-002,6.153338E-002,6.153338E-002,6.153338E-002,6.153338E-002,6.153338E-002,6.153338E-002,6.153338E-002,6.153338E-002,
   **   ~~~   ** Supply-to-demand interface deck 1 mass flow rate check value iteration history trace: 6.153338E-002,6.153338E-002,6.153338E-002,6.153338E-002,6.153338E-002,6.153338E-002,6.153338E-002,6.153338E-002,6.153338E-002,6.153338E-002,
   **   ~~~   ** Air System Named = CENTRAL SYSTEM did not converge for energy
   **   ~~~   ** Check values should be zero. Most Recent values listed first.
   **   ~~~   ** Demand-to-Supply interface energy check value iteration history trace: 1219.256885,1219.256885,1219.256885,1219.256885,1219.256885,1219.256885,1219.256885,1219.256885,1219.256885,1219.256885,
   **   ~~~   ** Supply-to-demand interface deck 1 energy check value iteration history trace: 2157.102833,2157.102832,2157.102832,2157.102832,2157.102832,2157.102832,2157.102832,2157.102832,2157.102832,2157.102832,
   ** Warning ** SimHVAC: Maximum iterations (20) exceeded for all HVAC loops, at ANNUAL, 10/21 09:15 - 09:22
   **   ~~~   ** The solution for one or more of the Air Loop HVAC systems did not appear to converge
   **   ~~~   ** Air System Named = CENTRAL SYSTEM did not converge for mass flow rate
   **   ~~~   ** Check values should be zero. Most Recent values listed first.
   **   ~~~   ** Demand-to-Supply interface mass flow rate check value iteration history trace: 5.780330E-002,5.780330E-002,5.780330E-002,5.780330E-002,5.780330E-002,5.780330E-002,5.780330E-002,5.780330E-002,5.780330E-002,5.780330E-002,
   **   ~~~   ** Supply-to-demand interface deck 1 mass flow rate check value iteration history trace: 5.780330E-002,5.780330E-002,5.780330E-002,5.780330E-002,5.780330E-002,5.780330E-002,5.780330E-002,5.780330E-002,5.780330E-002,5.780330E-002,
   **   ~~~   ** Air System Named = CENTRAL SYSTEM did not converge for energy
   **   ~~~   ** Check values should be zero. Most Recent values listed first.
   **   ~~~   ** Demand-to-Supply interface energy check value iteration history trace: 1142.017709,1142.017709,1142.017709,1142.017709,1142.017709,1142.017709,1142.017709,1142.017709,1142.017709,1142.017709,
   **   ~~~   ** Supply-to-demand interface deck 1 energy check value iteration history trace: 2064.765999,2064.765999,2064.765999,2064.765999,2064.765999,2064.765999,2064.765998,2064.765998,2064.765998,2064.765998,
   ** Warning ** SimHVAC: Maximum iterations (20) exceeded for all HVAC loops, at ANNUAL, 11/07 09:34 - 09:36
   **   ~~~   ** The solution for one or more of the Air Loop HVAC systems did not appear to converge
   **   ~~~   ** Air System Named = CENTRAL SYSTEM did not converge for mass flow rate
   **   ~~~   ** Check values should be zero. Most Recent values listed first.
   **   ~~~   ** Demand-to-Supply interface mass flow rate check value iteration history trace: 5.976127E-002,5.976127E-002,5.976127E-002,5.976127E-002,5.976127E-002,5.976127E-002,5.976127E-002,5.976127E-002,5.976127E-002,5.976127E-002,
   **   ~~~   ** Supply-to-demand interface deck 1 mass flow rate check value iteration history trace: 5.976127E-002,5.976127E-002,5.976127E-002,5.976127E-002,5.976127E-002,5.976127E-002,5.976127E-002,5.976127E-002,5.976127E-002,5.976127E-002,
   **   ~~~   ** Air System Named = CENTRAL SYSTEM did not converge for energy
   **   ~~~   ** Check values should be zero. Most Recent values listed first.
   **   ~~~   ** Demand-to-Supply interface energy check value iteration history trace: 1180.152668,1180.152668,1180.152668,1180.152668,1180.152668,1180.152668,1180.152668,1180.152668,1180.152668,1180.152668,
   **   ~~~   ** Supply-to-demand interface deck 1 energy check value iteration history trace: 2036.066581,2036.066581,2036.066581,2036.066581,2036.066581,2036.066581,2036.066580,2036.066580,2036.066580,2036.066580,
   ************* Simulation Error Summary *************
   ** Warning ** The following Report Variables were requested but not generated -- check.rdd file
   **   ~~~   ** Either the IDF did not contain these elements, the variable name is misspelled,
   **   ~~~   ** or the requested variable is an advanced output which requires Output : Diagnostics, DisplayAdvancedReportVariables;
   ************* Key=*, VarName=BASEBOARD TOTAL HEATING ENERGY, Frequency=
   ************* Key=*, VarName=WATER HEATER NATURALGAS ENERGY, Frequency=
   ************* Key=*, VarName=COOLING COIL TOTAL HEATING ENERGY, Frequency=
   ************* There are 34 unused schedules in input.
   ************* There are 388 unused week schedules in input.
   ************* There are 396 unused day schedules in input.
   ************* Use Output:Diagnostics,DisplayUnusedSchedules; to see them.
   *************
   ************* ===== Recurring Error Summary =====
   ************* The following recurring error messages occurred.
   *************
   *************  ** Warning ** "TOTAL HOT WATER LOAD" - Target water temperature should be less than or equal to the hot water temperature error continues...
   *************  **   ~~~   **   This error occurred 125449 total times;
   *************  **   ~~~   **   during Warmup 0 times;
   *************  **   ~~~   **   during Sizing 0 times.
   *************  **   ~~~   **   Max=10.191486  Min=9.002980E-004
   *************
   *************  ** Warning ** SimHVAC: Exceeding Maximum iterations for all HVAC loops, during ANNUAL continues
   *************  **   ~~~   **   This error occurred 2 total times;
   *************  **   ~~~   **   during Warmup 0 times;
   *************  **   ~~~   **   during Sizing 0 times.
   *************
   *************
   ************* ===== Final Error Summary =====
   ************* The following error categories occurred.  Consider correcting or noting.
   ************* Nominally Unused Constructions
   ************* ..The nominally unused constructions warning is provided to alert you to potential conditions that can cause
   ************* ..extra time during simulation. Each construction is calculated by the algorithm indicated in the HeatBalanceAlgorithm
   ************* ..object. You may remove the constructions indicated (when you use the DisplayExtraWarnings option).
   *************
   ************* EnergyPlus Warmup Error Summary. During Warmup: 1 Warning; 0 Severe Errors.
   ************* EnergyPlus Sizing Error Summary. During Sizing: 4 Warning; 0 Severe Errors.
   ************* EnergyPlus Completed Successfully-- 125483 Warning; 0 Severe Errors; Elapsed Time=00hr 01min 37.73sec
