Program Version,EnergyPlus, Version 22.2.0-c249759bad, YMD=2023.09.01 20:01,
   ************* Beginning Zone Sizing Calculations
   ** Warning ** ProcessScheduleInput: Schedule:Constant="ALWAYS ON DISCRETE", Schedule Type Limits Name="ONOFF" not found -- will not be validated
   ** Warning ** Foundation:Kiva="KIVA FOUNDATION", no Interior Horizontal Insulation Material Name defined
   **   ~~~   ** Interior Horizontal Insulation Depth will not be used.
   ** Warning ** CheckUsedConstructions: There are 15 nominally unused constructions in input.
   **   ~~~   ** Each Unused construction is shown.
   ************* Construction=INTERIOR FLOOR
   ************* Construction=INTERIOR WINDOW
   ************* Construction=EXTERIOR DOOR
   ************* Construction=INTERIOR DOOR
   ************* Construction=GABLE CONSTRUCTION
   ************* Construction=CRAWL_FLOOR
   ************* Construction=INSULATED PIPE
   ************* Construction=PLAIN PIPE
   ************* Construction=TDD PIPE
   ************* Construction=TDD DOME
   ************* Construction=TDD DIFFUSER
   ************* Construction=CRAWL WALL
   ************* Construction=CEILING-FLOOR-LAYER
   ************* Construction=SLAB CONSTRUCTION W FULL R10 INSULATION
   ************* Construction=SLAB CONSTRUCTION W FULL R5 INSULATION
   ** Warning ** GetDXCoils: Coil:Heating:DX:SingleSpeed="DX_HEATING_COIL" curve values
   **   ~~~   ** ... Defrost Energy Input Ratio Function of Temperature Curve Name = DEFROSTEIR output is not equal to 1.0 (+ or - 10%) at rated conditions.
   **   ~~~   ** ... Curve output at rated conditions = 0.152
   ************* Beginning System Sizing Calculations
   ************* Beginning Plant Sizing Calculations
   ** Warning ** SizeDXCoil Coil:Cooling:DX:SingleSpeed DX_COOLING_COIL
   **   ~~~   ** ...Gross Rated Total Cooling Capacity [W] will be limited by the maximum rated volume flow per rated total capacity ratio.
   **   ~~~   ** ...DX coil volume flow rate ( m3/s ) = 0.488324
   **   ~~~   ** ...Requested capacity ( W ) = 6218.803
   **   ~~~   ** ...Requested flow/capacity ratio ( m3/s/W ) = 7.852E-005
   **   ~~~   ** ...Maximum flow/capacity ratio ( m3/s/W ) = 6.041E-005
   **   ~~~   ** ...Adjusted capacity ( W ) = 8083.511
   ** Warning ** Coil:WaterHeating:AirToWaterHeatPump:Wrapped "HEAT PUMP WATER HEATER EVAPORATOR": Rated air volume flow rate per watt of rated total water heating capacity is out of range
   **   ~~~   ** Min Rated Vol Flow Per Watt=[4.027E-005], Rated Vol Flow Per Watt=[1.510E-004], Max Rated Vol Flow Per Watt=[8.056E-005]. See Input-Output Reference Manual for valid range.
   ************* SizeFan: : Potential issue with equipment sizing for Fan:OnOff HEAT PUMP WATER HEATER FAN
   **   ~~~   ** User-Specified Maximum Flow Rate [m3/s] = 0.22653
   **   ~~~   ** differs from Design Size Maximum Flow Rate [m3/s] = 7.55250E-002
   **   ~~~   ** This may, or may not, indicate mismatched component sizes.
   **   ~~~   ** Verify that the value entered is intended and is consistent with other components.
   ** Warning ** Water heater = WATER HEATER TANK:  Recovery Efficiency and Energy Factor could not be calculated during the test for standard ratings
   **   ~~~   ** Setpoint was never recovered and/or heater never turned on
   ** Warning ** Check input. Pump nominal power or motor efficiency is set to 0, for pump=MAINS PRESSURE
   ** Warning ** Output:Meter: invalid Key Name="ELECTRIC_RANGE:INTERIOREQUIPMENT:ELECTRICITY" - not found.
   ** Warning ** Output:Meter: invalid Key Name="ELECTRIC_DRYER:INTERIOREQUIPMENT:ELECTRICITY" - not found.
   ** Warning ** Output:Meter: invalid Key Name="HEATRECOVERY:ELECTRICITY" - not found.
   ** Warning ** Output:Meter: invalid Key Name="HEATING:NATURALGAS" - not found.
   ** Warning ** Output:Meter: invalid Key Name="WATERSYSTEMS:NATURALGAS" - not found.
   ** Warning ** Output:Meter: invalid Key Name="PROPANE:FACILITY" - not found.
   ** Warning ** Output:Meter: invalid Key Name="HEATING:PROPANE" - not found.
   ************* Testing Individual Branch Integrity
   ************* All Branches passed integrity testing
   ************* Testing Individual Supply Air Path Integrity
   ************* All Supply Air Paths passed integrity testing
   ************* Testing Individual Return Air Path Integrity
   ************* All Return Air Paths passed integrity testing
   ************* No node connection errors were found.
   ************* Beginning Simulation
   ** Warning ** AirflowNetwork::Solver::validate_distribution: Heat pump water heater is simulated along with an AirflowNetwork but is not included in the AirflowNetwork.
   ** Warning ** CalcEquipmentFlowRates: "TOTAL HOT WATER LOAD" - Target water temperature is greater than the hot water temperature by (4.26 C)
   **   ~~~   **  Environment=EXTREME_WINTER, at Simulation time=01/06 07:00 - 07:15
   **   ~~~   ** ...target water temperature     = 53.33 C
   **   ~~~   ** ...hot water temperature        = 49.07 C
   **   ~~~   ** ...Target water temperature should be less than or equal to the hot water temperature. Verify temperature setpoints and schedules.
   ** Warning ** SimHVAC: Maximum iterations (20) exceeded for all HVAC loops, at EXTREME_WINTER, 01/06 21:15 - 21:30
   **   ~~~   ** The solution for one or more of the Air Loop HVAC systems did not appear to converge
   **   ~~~   ** Air System Named = CENTRAL SYSTEM did not converge for mass flow rate
   **   ~~~   ** Check values should be zero. Most Recent values listed first.
   **   ~~~   ** Demand-to-Supply interface mass flow rate check value iteration history trace: 8.238086E-002,8.238086E-002,8.238086E-002,8.238086E-002,8.238086E-002,8.238086E-002,8.238086E-002,8.238086E-002,8.238086E-002,8.238086E-002,
   **   ~~~   ** Supply-to-demand interface deck 1 mass flow rate check value iteration history trace: 8.238086E-002,8.238086E-002,8.238086E-002,8.238086E-002,8.238086E-002,8.238086E-002,8.238086E-002,8.238086E-002,8.238086E-002,8.238086E-002,
   **   ~~~   ** Air System Named = CENTRAL SYSTEM did not converge for energy
   **   ~~~   ** Check values should be zero. Most Recent values listed first.
   **   ~~~   ** Demand-to-Supply interface energy check value iteration history trace: 1603.387411,1603.387411,1603.387411,1603.387411,1603.387411,1603.387410,1603.387410,1603.387410,1603.387410,1603.387410,
   **   ~~~   ** Supply-to-demand interface deck 1 energy check value iteration history trace: 2587.890071,2587.890071,2587.890071,2587.890070,2587.890070,2587.890070,2587.890070,2587.890070,2587.890070,2587.890070,
   ** Warning ** SimHVAC: Maximum iterations (20) exceeded for all HVAC loops, at EXTREME_WINTER, 01/09 18:04 - 18:08
   **   ~~~   ** The solution for one or more of the Air Loop HVAC systems did not appear to converge
   **   ~~~   ** Air System Named = CENTRAL SYSTEM did not converge for mass flow rate
   **   ~~~   ** Check values should be zero. Most Recent values listed first.
   **   ~~~   ** Demand-to-Supply interface mass flow rate check value iteration history trace: 8.295597E-002,8.295597E-002,8.295597E-002,8.295597E-002,8.295597E-002,8.295597E-002,8.295597E-002,8.295597E-002,8.295597E-002,8.295597E-002,
   **   ~~~   ** Supply-to-demand interface deck 1 mass flow rate check value iteration history trace: 8.295597E-002,8.295597E-002,8.295597E-002,8.295597E-002,8.295597E-002,8.295597E-002,8.295597E-002,8.295597E-002,8.295597E-002,8.295597E-002,
   **   ~~~   ** Air System Named = CENTRAL SYSTEM did not converge for energy
   **   ~~~   ** Check values should be zero. Most Recent values listed first.
   **   ~~~   ** Demand-to-Supply interface energy check value iteration history trace: 1641.400624,1641.400624,1641.400624,1641.400624,1641.400624,1641.400624,1641.400623,1641.400623,1641.400623,1641.400623,
   **   ~~~   ** Supply-to-demand interface deck 1 energy check value iteration history trace: 2429.926841,2429.926841,2429.926841,2429.926841,2429.926840,2429.926840,2429.926840,2429.926840,2429.926840,2429.926839,
   ** Warning ** SimHVAC: Maximum iterations (20) exceeded for all HVAC loops, at ANNUAL, 01/03 11:08 - 11:10
   **   ~~~   ** The solution for one or more of the Air Loop HVAC systems did not appear to converge
   **   ~~~   ** Air System Named = CENTRAL SYSTEM did not converge for mass flow rate
   **   ~~~   ** Check values should be zero. Most Recent values listed first.
   **   ~~~   ** Demand-to-Supply interface mass flow rate check value iteration history trace: 6.264778E-002,6.264778E-002,6.264778E-002,6.264778E-002,6.264778E-002,6.264778E-002,6.264778E-002,6.264778E-002,6.264778E-002,6.264778E-002,
   **   ~~~   ** Supply-to-demand interface deck 1 mass flow rate check value iteration history trace: 6.264778E-002,6.264778E-002,6.264778E-002,6.264778E-002,6.264778E-002,6.264778E-002,6.264778E-002,6.264778E-002,6.264778E-002,6.264778E-002,
   **   ~~~   ** Air System Named = CENTRAL SYSTEM did not converge for energy
   **   ~~~   ** Check values should be zero. Most Recent values listed first.
   **   ~~~   ** Demand-to-Supply interface energy check value iteration history trace: 1233.419900,1233.419900,1233.419900,1233.419900,1233.419900,1233.419900,1233.419900,1233.419900,1233.419900,1233.419900,
   **   ~~~   ** Supply-to-demand interface deck 1 energy check value iteration history trace: 2288.225468,2288.225468,2288.225468,2288.225468,2288.225468,2288.225467,2288.225467,2288.225467,2288.225467,2288.225467,
   ** Warning ** SimHVAC: Maximum iterations (20) exceeded for all HVAC loops, at ANNUAL, 01/09 13:30 - 13:45
   **   ~~~   ** The solution for one or more of the Air Loop HVAC systems did not appear to converge
   **   ~~~   ** Air System Named = CENTRAL SYSTEM did not converge for mass flow rate
   **   ~~~   ** Check values should be zero. Most Recent values listed first.
   **   ~~~   ** Demand-to-Supply interface mass flow rate check value iteration history trace: 6.305706E-002,6.305706E-002,6.305706E-002,6.305706E-002,6.305706E-002,6.305706E-002,6.305706E-002,6.305706E-002,6.305706E-002,6.305706E-002,
   **   ~~~   ** Supply-to-demand interface deck 1 mass flow rate check value iteration history trace: 6.305706E-002,6.305706E-002,6.305706E-002,6.305706E-002,6.305706E-002,6.305706E-002,6.305706E-002,6.305706E-002,6.305706E-002,6.305706E-002,
   **   ~~~   ** Air System Named = CENTRAL SYSTEM did not converge for energy
   **   ~~~   ** Check values should be zero. Most Recent values listed first.
   **   ~~~   ** Demand-to-Supply interface energy check value iteration history trace: 1228.395365,1228.395365,1228.395365,1228.395365,1228.395365,1228.395365,1228.395365,1228.395365,1228.395365,1228.395365,
   **   ~~~   ** Supply-to-demand interface deck 1 energy check value iteration history trace: 1909.228340,1909.228340,1909.228340,1909.228340,1909.228339,1909.228339,1909.228339,1909.228339,1909.228339,1909.228339,
   ** Warning ** SimHVAC: Maximum iterations (20) exceeded for all HVAC loops, at ANNUAL, 01/15 10:30 - 10:45
   **   ~~~   ** The solution for one or more of the Air Loop HVAC systems did not appear to converge
   **   ~~~   ** Air System Named = CENTRAL SYSTEM did not converge for mass flow rate
   **   ~~~   ** Check values should be zero. Most Recent values listed first.
   **   ~~~   ** Demand-to-Supply interface mass flow rate check value iteration history trace: 7.642784E-002,7.642784E-002,7.642784E-002,7.642784E-002,7.642784E-002,7.642784E-002,7.642784E-002,7.642784E-002,7.642784E-002,7.642784E-002,
   **   ~~~   ** Supply-to-demand interface deck 1 mass flow rate check value iteration history trace: 7.642784E-002,7.642784E-002,7.642784E-002,7.642784E-002,7.642784E-002,7.642784E-002,7.642784E-002,7.642784E-002,7.642784E-002,7.642784E-002,
   **   ~~~   ** Air System Named = CENTRAL SYSTEM did not converge for energy
   **   ~~~   ** Check values should be zero. Most Recent values listed first.
   **   ~~~   ** Demand-to-Supply interface energy check value iteration history trace: 1514.513024,1514.513024,1514.513024,1514.513024,1514.513024,1514.513024,1514.513024,1514.513024,1514.513024,1514.513024,
   **   ~~~   ** Supply-to-demand interface deck 1 energy check value iteration history trace: 2528.372756,2528.372756,2528.372756,2528.372756,2528.372755,2528.372755,2528.372755,2528.372755,2528.372755,2528.372755,
   ** Warning ** SimHVAC: Maximum iterations (20) exceeded for all HVAC loops, at ANNUAL, 01/15 13:15 - 13:30
   **   ~~~   ** The solution for one or more of the Air Loop HVAC systems did not appear to converge
   **   ~~~   ** Air System Named = CENTRAL SYSTEM did not converge for mass flow rate
   **   ~~~   ** Check values should be zero. Most Recent values listed first.
   **   ~~~   ** Demand-to-Supply interface mass flow rate check value iteration history trace: 5.548569E-002,5.548569E-002,5.548569E-002,5.548569E-002,5.548569E-002,5.548569E-002,5.548569E-002,5.548569E-002,5.548569E-002,5.548569E-002,
   **   ~~~   ** Supply-to-demand interface deck 1 mass flow rate check value iteration history trace: 5.548569E-002,5.548569E-002,5.548569E-002,5.548569E-002,5.548569E-002,5.548569E-002,5.548569E-002,5.548569E-002,5.548569E-002,5.548569E-002,
   **   ~~~   ** Air System Named = CENTRAL SYSTEM did not converge for energy
   **   ~~~   ** Check values should be zero. Most Recent values listed first.
   **   ~~~   ** Demand-to-Supply interface energy check value iteration history trace: 1080.178953,1080.178953,1080.178953,1080.178953,1080.178953,1080.178953,1080.178953,1080.178953,1080.178953,1080.178953,
   **   ~~~   ** Supply-to-demand interface deck 1 energy check value iteration history trace: 1832.294190,1832.294190,1832.294190,1832.294190,1832.294190,1832.294190,1832.294190,1832.294189,1832.294189,1832.294189,
   ** Warning ** SimHVAC: Maximum iterations (20) exceeded for all HVAC loops, at ANNUAL, 01/19 12:49 - 12:52
   **   ~~~   ** The solution for one or more of the Air Loop HVAC systems did not appear to converge
   **   ~~~   ** Air System Named = CENTRAL SYSTEM did not converge for mass flow rate
   **   ~~~   ** Check values should be zero. Most Recent values listed first.
   **   ~~~   ** Demand-to-Supply interface mass flow rate check value iteration history trace: 6.704264E-002,6.704264E-002,6.704264E-002,6.704264E-002,6.704264E-002,6.704264E-002,6.704264E-002,6.704264E-002,6.704264E-002,6.704264E-002,
   **   ~~~   ** Supply-to-demand interface deck 1 mass flow rate check value iteration history trace: 6.704264E-002,6.704264E-002,6.704264E-002,6.704264E-002,6.704264E-002,6.704264E-002,6.704264E-002,6.704264E-002,6.704264E-002,6.704264E-002,
   **   ~~~   ** Air System Named = CENTRAL SYSTEM did not converge for energy
   **   ~~~   ** Check values should be zero. Most Recent values listed first.
   **   ~~~   ** Demand-to-Supply interface energy check value iteration history trace: 1328.636017,1328.636017,1328.636017,1328.636017,1328.636017,1328.636017,1328.636017,1328.636017,1328.636017,1328.636017,
   **   ~~~   ** Supply-to-demand interface deck 1 energy check value iteration history trace: 2198.082205,2198.082205,2198.082204,2198.082204,2198.082204,2198.082204,2198.082204,2198.082204,2198.082204,2198.082204,
   ** Warning ** SimHVAC: Maximum iterations (20) exceeded for all HVAC loops, at ANNUAL, 01/21 11:00 - 11:15
   **   ~~~   ** The solution for one or more of the Air Loop HVAC systems did not appear to converge
   **   ~~~   ** Air System Named = CENTRAL SYSTEM did not converge for mass flow rate
   **   ~~~   ** Check values should be zero. Most Recent values listed first.
   **   ~~~   ** Demand-to-Supply interface mass flow rate check value iteration history trace: 6.559106E-002,6.559106E-002,6.559106E-002,6.559106E-002,6.559106E-002,6.559106E-002,6.559106E-002,6.559106E-002,6.559106E-002,6.559106E-002,
   **   ~~~   ** Supply-to-demand interface deck 1 mass flow rate check value iteration history trace: 6.559106E-002,6.559106E-002,6.559106E-002,6.559106E-002,6.559106E-002,6.559106E-002,6.559106E-002,6.559106E-002,6.559106E-002,6.559106E-002,
   **   ~~~   ** Air System Named = CENTRAL SYSTEM did not converge for energy
   **   ~~~   ** Check values should be zero. Most Recent values listed first.
   **   ~~~   ** Demand-to-Supply interface energy check value iteration history trace: 1299.827415,1299.827415,1299.827415,1299.827415,1299.827415,1299.827415,1299.827415,1299.827415,1299.827414,1299.827414,
   **   ~~~   ** Supply-to-demand interface deck 1 energy check value iteration history trace: 2153.769304,2153.769304,2153.769304,2153.769303,2153.769303,2153.769303,2153.769303,2153.769303,2153.769303,2153.769303,
   ** Warning ** SimHVAC: Maximum iterations (20) exceeded for all HVAC loops, at ANNUAL, 01/21 12:04 - 12:06
   **   ~~~   ** The solution for one or more of the Air Loop HVAC systems did not appear to converge
   **   ~~~   ** Air System Named = CENTRAL SYSTEM did not converge for mass flow rate
   **   ~~~   ** Check values should be zero. Most Recent values listed first.
   **   ~~~   ** Demand-to-Supply interface mass flow rate check value iteration history trace: 5.585960E-002,5.585960E-002,5.585960E-002,5.585960E-002,5.585960E-002,5.585960E-002,5.585960E-002,5.585960E-002,5.585960E-002,5.585960E-002,
   **   ~~~   ** Supply-to-demand interface deck 1 mass flow rate check value iteration history trace: 5.585960E-002,5.585960E-002,5.585960E-002,5.585960E-002,5.585960E-002,5.585960E-002,5.585960E-002,5.585960E-002,5.585960E-002,5.585960E-002,
   **   ~~~   ** Air System Named = CENTRAL SYSTEM did not converge for energy
   **   ~~~   ** Check values should be zero. Most Recent values listed first.
   **   ~~~   ** Demand-to-Supply interface energy check value iteration history trace: 1102.957662,1102.957662,1102.957662,1102.957662,1102.957662,1102.957662,1102.957662,1102.957661,1102.957661,1102.957661,
   **   ~~~   ** Supply-to-demand interface deck 1 energy check value iteration history trace: 1861.207941,1861.207941,1861.207941,1861.207941,1861.207941,1861.207941,1861.207941,1861.207941,1861.207941,1861.207940,
   ** Warning ** SimHVAC: Maximum iterations (20) exceeded for all HVAC loops, at ANNUAL, 01/22 09:32 - 09:34
   **   ~~~   ** The solution for one or more of the Air Loop HVAC systems did not appear to converge
   **   ~~~   ** Air System Named = CENTRAL SYSTEM did not converge for mass flow rate
   **   ~~~   ** Check values should be zero. Most Recent values listed first.
   **   ~~~   ** Demand-to-Supply interface mass flow rate check value iteration history trace: 6.521567E-002,6.521567E-002,6.521567E-002,6.521567E-002,6.521567E-002,6.521567E-002,6.521567E-002,6.521567E-002,6.521567E-002,6.521567E-002,
   **   ~~~   ** Supply-to-demand interface deck 1 mass flow rate check value iteration history trace: 6.521567E-002,6.521567E-002,6.521567E-002,6.521567E-002,6.521567E-002,6.521567E-002,6.521567E-002,6.521567E-002,6.521567E-002,6.521567E-002,
   **   ~~~   ** Air System Named = CENTRAL SYSTEM did not converge for energy
   **   ~~~   ** Check values should be zero. Most Recent values listed first.
   **   ~~~   ** Demand-to-Supply interface energy check value iteration history trace: 1292.406244,1292.406244,1292.406244,1292.406244,1292.406244,1292.406244,1292.406244,1292.406244,1292.406244,1292.406244,
   **   ~~~   ** Supply-to-demand interface deck 1 energy check value iteration history trace: 2345.898506,2345.898506,2345.898506,2345.898506,2345.898506,2345.898506,2345.898506,2345.898505,2345.898505,2345.898505,
   ** Warning ** Temperature out of range [-100. to 200.] (PsyPsatFnTemp)
   **   ~~~   **  Routine=PsyTwbFnTdbWPb, Environment=ANNUAL, at Simulation time=01/24 02:00 - 02:15
   **   ~~~   **  Input Temperature=-469.16
   ** Warning ** SimHVAC: Maximum iterations (20) exceeded for all HVAC loops, at ANNUAL, 02/01 09:45 - 10:00
   **   ~~~   ** The solution for one or more of the Air Loop HVAC systems did not appear to converge
   **   ~~~   ** Air System Named = CENTRAL SYSTEM did not converge for mass flow rate
   **   ~~~   ** Check values should be zero. Most Recent values listed first.
   **   ~~~   ** Demand-to-Supply interface mass flow rate check value iteration history trace: 5.755355E-002,5.755355E-002,5.755355E-002,5.755355E-002,5.755355E-002,5.755355E-002,5.755355E-002,5.755355E-002,5.755355E-002,5.755355E-002,
   **   ~~~   ** Supply-to-demand interface deck 1 mass flow rate check value iteration history trace: 5.755355E-002,5.755355E-002,5.755355E-002,5.755355E-002,5.755355E-002,5.755355E-002,5.755355E-002,5.755355E-002,5.755355E-002,5.755355E-002,
   **   ~~~   ** Air System Named = CENTRAL SYSTEM did not converge for energy
   **   ~~~   ** Check values should be zero. Most Recent values listed first.
   **   ~~~   ** Demand-to-Supply interface energy check value iteration history trace: 1140.457600,1140.457600,1140.457600,1140.457600,1140.457600,1140.457600,1140.457600,1140.457600,1140.457600,1140.457600,
   **   ~~~   ** Supply-to-demand interface deck 1 energy check value iteration history trace: 2179.323558,2179.323558,2179.323558,2179.323558,2179.323558,2179.323558,2179.323558,2179.323558,2179.323558,2179.323557,
   ** Warning ** SimHVAC: Maximum iterations (20) exceeded for all HVAC loops, at ANNUAL, 02/26 12:04 - 12:06
   **   ~~~   ** The solution for one or more of the Air Loop HVAC systems did not appear to converge
   **   ~~~   ** Air System Named = CENTRAL SYSTEM did not converge for mass flow rate
   **   ~~~   ** Check values should be zero. Most Recent values listed first.
   **   ~~~   ** Demand-to-Supply interface mass flow rate check value iteration history trace: 7.088761E-002,7.088761E-002,7.088761E-002,7.088761E-002,7.088761E-002,7.088761E-002,7.088761E-002,7.088761E-002,7.088761E-002,7.088761E-002,
   **   ~~~   ** Supply-to-demand interface deck 1 mass flow rate check value iteration history trace: 7.088761E-002,7.088761E-002,7.088761E-002,7.088761E-002,7.088761E-002,7.088761E-002,7.088761E-002,7.088761E-002,7.088761E-002,7.088761E-002,
   **   ~~~   ** Air System Named = CENTRAL SYSTEM did not converge for energy
   **   ~~~   ** Check values should be zero. Most Recent values listed first.
   **   ~~~   ** Demand-to-Supply interface energy check value iteration history trace: 1404.844806,1404.844806,1404.844806,1404.844806,1404.844806,1404.844806,1404.844806,1404.844806,1404.844806,1404.844806,
   **   ~~~   ** Supply-to-demand interface deck 1 energy check value iteration history trace: 2320.410448,2320.410448,2320.410448,2320.410447,2320.410447,2320.410447,2320.410447,2320.410447,2320.410447,2320.410447,
   ** Warning ** SimHVAC: Maximum iterations (20) exceeded for all HVAC loops, at ANNUAL, 03/03 08:21 - 08:24
   **   ~~~   ** The solution for one or more of the Air Loop HVAC systems did not appear to converge
   **   ~~~   ** Air System Named = CENTRAL SYSTEM did not converge for mass flow rate
   **   ~~~   ** Check values should be zero. Most Recent values listed first.
   **   ~~~   ** Demand-to-Supply interface mass flow rate check value iteration history trace: 5.142607E-002,5.142607E-002,5.142607E-002,5.142607E-002,5.142607E-002,5.142607E-002,5.142607E-002,5.142607E-002,5.142607E-002,5.142607E-002,
   **   ~~~   ** Supply-to-demand interface deck 1 mass flow rate check value iteration history trace: 5.142607E-002,5.142607E-002,5.142607E-002,5.142607E-002,5.142607E-002,5.142607E-002,5.142607E-002,5.142607E-002,5.142607E-002,5.142607E-002,
   **   ~~~   ** Air System Named = CENTRAL SYSTEM did not converge for energy
   **   ~~~   ** Check values should be zero. Most Recent values listed first.
   **   ~~~   ** Demand-to-Supply interface energy check value iteration history trace: 1019.115547,1019.115547,1019.115547,1019.115547,1019.115547,1019.115547,1019.115547,1019.115547,1019.115547,1019.115547,
   **   ~~~   ** Supply-to-demand interface deck 1 energy check value iteration history trace: 1925.871310,1925.871310,1925.871310,1925.871309,1925.871309,1925.871309,1925.871309,1925.871309,1925.871309,1925.871309,
   ** Warning ** SimHVAC: Maximum iterations (20) exceeded for all HVAC loops, at ANNUAL, 03/06 09:45 - 10:00
   **   ~~~   ** The solution for one or more of the Air Loop HVAC systems did not appear to converge
   **   ~~~   ** Air System Named = CENTRAL SYSTEM did not converge for mass flow rate
   **   ~~~   ** Check values should be zero. Most Recent values listed first.
   **   ~~~   ** Demand-to-Supply interface mass flow rate check value iteration history trace: 6.358602E-002,6.358602E-002,6.358602E-002,6.358602E-002,6.358602E-002,6.358602E-002,6.358602E-002,6.358602E-002,6.358602E-002,6.358602E-002,
   **   ~~~   ** Supply-to-demand interface deck 1 mass flow rate check value iteration history trace: 6.358602E-002,6.358602E-002,6.358602E-002,6.358602E-002,6.358602E-002,6.358602E-002,6.358602E-002,6.358602E-002,6.358602E-002,6.358602E-002,
   **   ~~~   ** Air System Named = CENTRAL SYSTEM did not converge for energy
   **   ~~~   ** Check values should be zero. Most Recent values listed first.
   **   ~~~   ** Demand-to-Supply interface energy check value iteration history trace: 1260.087696,1260.087696,1260.087696,1260.087696,1260.087696,1260.087696,1260.087696,1260.087696,1260.087696,1260.087696,
   **   ~~~   ** Supply-to-demand interface deck 1 energy check value iteration history trace: 2318.410697,2318.410697,2318.410697,2318.410697,2318.410697,2318.410697,2318.410697,2318.410697,2318.410697,2318.410696,
   ** Warning ** WetBulb not converged after 101 iterations(PsyTwbFnTdbWPb)
   **   ~~~   **  Routine=Unknown, Environment=ANNUAL, at Simulation time=12/04 19:00 - 19:05
   **   ~~~   **  Input Temperature = 6.69
   **   ~~~   **  Input Humidity Ratio= 1.925378E-003
   **   ~~~   **  Input Pressure = 82694.00
   **   ~~~   **  Resultant Temperature= -1.06
   ************* Simulation Error Summary *************
   ** Warning ** The following Report Variables were requested but not generated -- check.rdd file
   **   ~~~   ** Either the IDF did not contain these elements, the variable name is misspelled,
   **   ~~~   ** or the requested variable is an advanced output which requires Output : Diagnostics, DisplayAdvancedReportVariables;
   ************* Key=*, VarName=BASEBOARD TOTAL HEATING ENERGY, Frequency=
   ************* Key=*, VarName=WATER HEATER NATURALGAS ENERGY, Frequency=
   ************* Key=*, VarName=COOLING COIL TOTAL HEATING ENERGY, Frequency=
   ************* There are 34 unused schedules in input.
   ************* There are 388 unused week schedules in input.
   ************* There are 396 unused day schedules in input.
   ************* Use Output:Diagnostics,DisplayUnusedSchedules; to see them.
   *************
   ************* ===== Recurring Error Summary =====
   ************* The following recurring error messages occurred.
   *************
   *************  ** Warning ** "TOTAL HOT WATER LOAD" - Target water temperature should be less than or equal to the hot water temperature error continues...
   *************  **   ~~~   **   This error occurred 206107 total times;
   *************  **   ~~~   **   during Warmup 0 times;
   *************  **   ~~~   **   during Sizing 0 times.
   *************  **   ~~~   **   Max=12.936867  Min=1.893705E-004
   *************
   *************  ** Warning ** Temperature out of range [-100. to 200.] (PsyPsatFnTemp)
   *************  **   ~~~   **   This error occurred 3 total times;
   *************  **   ~~~   **   during Warmup 0 times;
   *************  **   ~~~   **   during Sizing 0 times.
   *************  **   ~~~   **   Max=-120.63657 C  Min=-469.161362 C
   *************
   *************  ** Warning ** SimHVAC: Exceeding Maximum iterations for all HVAC loops, during ANNUAL continues
   *************  **   ~~~   **   This error occurred 26 total times;
   *************  **   ~~~   **   during Warmup 0 times;
   *************  **   ~~~   **   during Sizing 0 times.
   *************
   *************  ** Warning ** WetBulb not converged after max iterations(PsyTwbFnTdbWPb)
   *************  **   ~~~   **   This error occurred 1 total times;
   *************  **   ~~~   **   during Warmup 0 times;
   *************  **   ~~~   **   during Sizing 0 times.
   *************
   *************
   ************* ===== Final Error Summary =====
   ************* The following error categories occurred.  Consider correcting or noting.
   ************* Nominally Unused Constructions
   ************* ..The nominally unused constructions warning is provided to alert you to potential conditions that can cause
   ************* ..extra time during simulation. Each construction is calculated by the algorithm indicated in the HeatBalanceAlgorithm
   ************* ..object. You may remove the constructions indicated (when you use the DisplayExtraWarnings option).
   *************
   ************* EnergyPlus Warmup Error Summary. During Warmup: 1 Warning; 0 Severe Errors.
   ************* EnergyPlus Sizing Error Summary. During Sizing: 4 Warning; 0 Severe Errors.
   ************* EnergyPlus Completed Successfully-- 206169 Warning; 0 Severe Errors; Elapsed Time=00hr 01min 50.76sec
