Program Version,EnergyPlus, Version 22.2.0-c249759bad, YMD=2023.09.01 19:22,
   ************* Beginning Zone Sizing Calculations
   ** Warning ** ProcessScheduleInput: Schedule:Constant="ALWAYS ON DISCRETE", Schedule Type Limits Name="ONOFF" not found -- will not be validated
   ** Warning ** Foundation:Kiva="KIVA FOUNDATION", no Interior Horizontal Insulation Material Name defined
   **   ~~~   ** Interior Horizontal Insulation Depth will not be used.
   ** Warning ** CheckUsedConstructions: There are 15 nominally unused constructions in input.
   **   ~~~   ** Each Unused construction is shown.
   ************* Construction=INTERIOR FLOOR
   ************* Construction=INTERIOR WINDOW
   ************* Construction=EXTERIOR DOOR
   ************* Construction=INTERIOR DOOR
   ************* Construction=GABLE CONSTRUCTION
   ************* Construction=CRAWL_FLOOR
   ************* Construction=INSULATED PIPE
   ************* Construction=PLAIN PIPE
   ************* Construction=TDD PIPE
   ************* Construction=TDD DOME
   ************* Construction=TDD DIFFUSER
   ************* Construction=CRAWL WALL
   ************* Construction=CEILING-FLOOR-LAYER
   ************* Construction=SLAB CONSTRUCTION W FULL R10 INSULATION
   ************* Construction=SLAB CONSTRUCTION W FULL R5 INSULATION
   ** Warning ** GetDXCoils: Coil:Heating:DX:SingleSpeed="DX_HEATING_COIL" curve values
   **   ~~~   ** ... Defrost Energy Input Ratio Function of Temperature Curve Name = DEFROSTEIR output is not equal to 1.0 (+ or - 10%) at rated conditions.
   **   ~~~   ** ... Curve output at rated conditions = 0.152
   ************* Beginning System Sizing Calculations
   ************* Beginning Plant Sizing Calculations
   ** Warning ** SizeDXCoil Coil:Cooling:DX:SingleSpeed DX_COOLING_COIL
   **   ~~~   ** ...Gross Rated Total Cooling Capacity [W] will be limited by the maximum rated volume flow per rated total capacity ratio.
   **   ~~~   ** ...DX coil volume flow rate ( m3/s ) = 0.475369
   **   ~~~   ** ...Requested capacity ( W ) = 5702.130
   **   ~~~   ** ...Requested flow/capacity ratio ( m3/s/W ) = 8.336E-005
   **   ~~~   ** ...Maximum flow/capacity ratio ( m3/s/W ) = 6.041E-005
   **   ~~~   ** ...Adjusted capacity ( W ) = 7869.053
   ** Warning ** Coil:WaterHeating:AirToWaterHeatPump:Wrapped "HEAT PUMP WATER HEATER EVAPORATOR": Rated air volume flow rate per watt of rated total water heating capacity is out of range
   **   ~~~   ** Min Rated Vol Flow Per Watt=[4.027E-005], Rated Vol Flow Per Watt=[1.510E-004], Max Rated Vol Flow Per Watt=[8.056E-005]. See Input-Output Reference Manual for valid range.
   ************* SizeFan: : Potential issue with equipment sizing for Fan:OnOff HEAT PUMP WATER HEATER FAN
   **   ~~~   ** User-Specified Maximum Flow Rate [m3/s] = 0.22653
   **   ~~~   ** differs from Design Size Maximum Flow Rate [m3/s] = 7.55250E-002
   **   ~~~   ** This may, or may not, indicate mismatched component sizes.
   **   ~~~   ** Verify that the value entered is intended and is consistent with other components.
   ** Warning ** Water heater = WATER HEATER TANK:  Recovery Efficiency and Energy Factor could not be calculated during the test for standard ratings
   **   ~~~   ** Setpoint was never recovered and/or heater never turned on
   ** Warning ** Check input. Pump nominal power or motor efficiency is set to 0, for pump=MAINS PRESSURE
   ** Warning ** Output:Meter: invalid Key Name="ELECTRIC_RANGE:INTERIOREQUIPMENT:ELECTRICITY" - not found.
   ** Warning ** Output:Meter: invalid Key Name="ELECTRIC_DRYER:INTERIOREQUIPMENT:ELECTRICITY" - not found.
   ** Warning ** Output:Meter: invalid Key Name="HEATRECOVERY:ELECTRICITY" - not found.
   ** Warning ** Output:Meter: invalid Key Name="HEATING:NATURALGAS" - not found.
   ** Warning ** Output:Meter: invalid Key Name="WATERSYSTEMS:NATURALGAS" - not found.
   ** Warning ** Output:Meter: invalid Key Name="PROPANE:FACILITY" - not found.
   ** Warning ** Output:Meter: invalid Key Name="HEATING:PROPANE" - not found.
   ************* Testing Individual Branch Integrity
   ************* All Branches passed integrity testing
   ************* Testing Individual Supply Air Path Integrity
   ************* All Supply Air Paths passed integrity testing
   ************* Testing Individual Return Air Path Integrity
   ************* All Return Air Paths passed integrity testing
   ************* No node connection errors were found.
   ************* Beginning Simulation
   ** Warning ** AirflowNetwork::Solver::validate_distribution: Heat pump water heater is simulated along with an AirflowNetwork but is not included in the AirflowNetwork.
   ** Warning ** CalcEquipmentFlowRates: "TOTAL HOT WATER LOAD" - Target water temperature is greater than the hot water temperature by (0.31 C)
   **   ~~~   **  Environment=EXTREME_WINTER, at Simulation time=01/01 06:45 - 07:00
   **   ~~~   ** ...target water temperature     = 53.33 C
   **   ~~~   ** ...hot water temperature        = 53.03 C
   **   ~~~   ** ...Target water temperature should be less than or equal to the hot water temperature. Verify temperature setpoints and schedules.
   ** Severe  ** CheckWarmupConvergence: Loads Initialization, Zone="LIVING" did not converge after 25 warmup days.
   **   ~~~   ** See Warmup Convergence Information in .eio file for details.
   **   ~~~   ** ...Environment(SizingPeriod)="EXTREME_SUMMER"
   **   ~~~   ** ..Max Temp Comparison = 5.03E-007 vs Temperature Convergence Tolerance=5.00E-002 - Pass Convergence
   **   ~~~   ** ..Min Temp Comparison = 0.33 vs Temperature Convergence Tolerance=5.00E-002 - Fail Convergence
   **   ~~~   ** ..Max Heat Load Comparison = 4.8756E-003 vs Loads Convergence Tolerance=5.00E-002 - Pass Convergence
   **   ~~~   ** ..Max Cool Load Comparison = 4.7636E-004 vs Loads Convergence Tolerance=5.00E-002 - Pass Convergence
   ** Severe  ** CheckWarmupConvergence: Loads Initialization, Zone="ATTIC" did not converge after 25 warmup days.
   **   ~~~   ** ...Environment(SizingPeriod)="EXTREME_SUMMER"
   **   ~~~   ** ..Max Temp Comparison = 2.95E-003 vs Temperature Convergence Tolerance=5.00E-002 - Pass Convergence
   **   ~~~   ** ..Min Temp Comparison = 6.63E-002 vs Temperature Convergence Tolerance=5.00E-002 - Fail Convergence
   **   ~~~   ** ..Max Heat Load Comparison = 0.0000 vs Loads Convergence Tolerance=5.00E-002 - Pass Convergence
   **   ~~~   ** ..Max Cool Load Comparison = 0.0000 vs Loads Convergence Tolerance=5.00E-002 - Pass Convergence
   ** Warning ** SimHVAC: Maximum iterations (20) exceeded for all HVAC loops, at ANNUAL, 03/14 12:15 - 12:17
   **   ~~~   ** The solution for one or more of the Air Loop HVAC systems did not appear to converge
   **   ~~~   ** Air System Named = CENTRAL SYSTEM did not converge for mass flow rate
   **   ~~~   ** Check values should be zero. Most Recent values listed first.
   **   ~~~   ** Demand-to-Supply interface mass flow rate check value iteration history trace: 6.386693E-002,6.386693E-002,6.386693E-002,6.386693E-002,6.386693E-002,6.386693E-002,6.386693E-002,6.386693E-002,6.386693E-002,6.386693E-002,
   **   ~~~   ** Supply-to-demand interface deck 1 mass flow rate check value iteration history trace: 6.386693E-002,6.386693E-002,6.386693E-002,6.386693E-002,6.386693E-002,6.386693E-002,6.386693E-002,6.386693E-002,6.386693E-002,6.386693E-002,
   **   ~~~   ** Air System Named = CENTRAL SYSTEM did not converge for energy
   **   ~~~   ** Check values should be zero. Most Recent values listed first.
   **   ~~~   ** Demand-to-Supply interface energy check value iteration history trace: 1265.681268,1265.681268,1265.681268,1265.681268,1265.681268,1265.681267,1265.681267,1265.681267,1265.681267,1265.681267,
   **   ~~~   ** Supply-to-demand interface deck 1 energy check value iteration history trace: 2070.835732,2070.835732,2070.835732,2070.835732,2070.835732,2070.835732,2070.835731,2070.835731,2070.835731,2070.835731,
   ** Warning ** SimHVAC: Maximum iterations (20) exceeded for all HVAC loops, at ANNUAL, 03/15 10:30 - 10:45
   **   ~~~   ** The solution for one or more of the Air Loop HVAC systems did not appear to converge
   **   ~~~   ** Air System Named = CENTRAL SYSTEM did not converge for mass flow rate
   **   ~~~   ** Check values should be zero. Most Recent values listed first.
   **   ~~~   ** Demand-to-Supply interface mass flow rate check value iteration history trace: 7.014911E-002,7.014911E-002,7.014911E-002,7.014911E-002,7.014911E-002,7.014911E-002,7.014911E-002,7.014911E-002,7.014911E-002,7.014911E-002,
   **   ~~~   ** Supply-to-demand interface deck 1 mass flow rate check value iteration history trace: 7.014911E-002,7.014911E-002,7.014911E-002,7.014911E-002,7.014911E-002,7.014911E-002,7.014911E-002,7.014911E-002,7.014911E-002,7.014911E-002,
   **   ~~~   ** Air System Named = CENTRAL SYSTEM did not converge for energy
   **   ~~~   ** Check values should be zero. Most Recent values listed first.
   **   ~~~   ** Demand-to-Supply interface energy check value iteration history trace: 1389.457994,1389.457994,1389.457994,1389.457994,1389.457994,1389.457994,1389.457994,1389.457994,1389.457994,1389.457994,
   **   ~~~   ** Supply-to-demand interface deck 1 energy check value iteration history trace: 2281.804257,2281.804257,2281.804256,2281.804256,2281.804256,2281.804256,2281.804256,2281.804256,2281.804256,2281.804256,
   ** Warning ** SimHVAC: Maximum iterations (20) exceeded for all HVAC loops, at ANNUAL, 04/05 10:13 - 10:15
   **   ~~~   ** The solution for one or more of the Air Loop HVAC systems did not appear to converge
   **   ~~~   ** Air System Named = CENTRAL SYSTEM did not converge for mass flow rate
   **   ~~~   ** Check values should be zero. Most Recent values listed first.
   **   ~~~   ** Demand-to-Supply interface mass flow rate check value iteration history trace: 5.370279E-002,5.370279E-002,5.370279E-002,5.370279E-002,5.370279E-002,5.370279E-002,5.370279E-002,5.370279E-002,5.370279E-002,5.370279E-002,
   **   ~~~   ** Supply-to-demand interface deck 1 mass flow rate check value iteration history trace: 5.370279E-002,5.370279E-002,5.370279E-002,5.370279E-002,5.370279E-002,5.370279E-002,5.370279E-002,5.370279E-002,5.370279E-002,5.370279E-002,
   **   ~~~   ** Air System Named = CENTRAL SYSTEM did not converge for energy
   **   ~~~   ** Check values should be zero. Most Recent values listed first.
   **   ~~~   ** Demand-to-Supply interface energy check value iteration history trace: 1058.349111,1058.349111,1058.349111,1058.349111,1058.349111,1058.349111,1058.349111,1058.349111,1058.349111,1058.349111,
   **   ~~~   ** Supply-to-demand interface deck 1 energy check value iteration history trace: 1992.387632,1992.387632,1992.387631,1992.387631,1992.387631,1992.387631,1992.387631,1992.387631,1992.387631,1992.387631,
   ** Warning ** SimHVAC: Maximum iterations (20) exceeded for all HVAC loops, at ANNUAL, 04/08 20:45 - 21:00
   **   ~~~   ** The solution for one or more of the Air Loop HVAC systems did not appear to converge
   **   ~~~   ** Air System Named = CENTRAL SYSTEM did not converge for mass flow rate
   **   ~~~   ** Check values should be zero. Most Recent values listed first.
   **   ~~~   ** Demand-to-Supply interface mass flow rate check value iteration history trace: 2.369072E-002,2.369072E-002,2.369072E-002,2.369072E-002,2.369072E-002,2.369072E-002,2.369072E-002,2.369072E-002,2.369072E-002,2.369072E-002,
   **   ~~~   ** Supply-to-demand interface deck 1 mass flow rate check value iteration history trace: 2.369072E-002,2.369072E-002,2.369072E-002,2.369072E-002,2.369072E-002,2.369072E-002,2.369072E-002,2.369072E-002,2.369072E-002,2.369072E-002,
   **   ~~~   ** Air System Named = CENTRAL SYSTEM did not converge for energy
   **   ~~~   ** Check values should be zero. Most Recent values listed first.
   **   ~~~   ** Demand-to-Supply interface energy check value iteration history trace: 468.112927,468.112927,468.112927,468.112927,468.112927,468.112927,468.112927,468.112927,468.112927,468.112927,
   **   ~~~   ** Supply-to-demand interface deck 1 energy check value iteration history trace: 785.004002,785.004002,785.004002,785.004002,785.004002,785.004002,785.004002,785.004002,785.004002,785.004002,
   ** Warning ** SimHVAC: Maximum iterations (20) exceeded for all HVAC loops, at ANNUAL, 05/04 09:52 - 09:53
   **   ~~~   ** The solution for one or more of the Air Loop HVAC systems did not appear to converge
   **   ~~~   ** Air System Named = CENTRAL SYSTEM did not converge for mass flow rate
   **   ~~~   ** Check values should be zero. Most Recent values listed first.
   **   ~~~   ** Demand-to-Supply interface mass flow rate check value iteration history trace: 5.664797E-002,5.664797E-002,5.664797E-002,5.664797E-002,5.664797E-002,5.664797E-002,5.664797E-002,5.664797E-002,5.664797E-002,5.664797E-002,
   **   ~~~   ** Supply-to-demand interface deck 1 mass flow rate check value iteration history trace: 5.664797E-002,5.664797E-002,5.664797E-002,5.664797E-002,5.664797E-002,5.664797E-002,5.664797E-002,5.664797E-002,5.664797E-002,5.664797E-002,
   **   ~~~   ** Air System Named = CENTRAL SYSTEM did not converge for energy
   **   ~~~   ** Check values should be zero. Most Recent values listed first.
   **   ~~~   ** Demand-to-Supply interface energy check value iteration history trace: 1117.221129,1117.221129,1117.221129,1117.221129,1117.221129,1117.221129,1117.221129,1117.221129,1117.221129,1117.221129,
   **   ~~~   ** Supply-to-demand interface deck 1 energy check value iteration history trace: 2164.558699,2164.558699,2164.558699,2164.558699,2164.558699,2164.558699,2164.558699,2164.558699,2164.558699,2164.558699,
   ** Warning ** SimHVAC: Maximum iterations (20) exceeded for all HVAC loops, at ANNUAL, 05/12 10:47 - 10:50
   **   ~~~   ** The solution for one or more of the Air Loop HVAC systems did not appear to converge
   **   ~~~   ** Air System Named = CENTRAL SYSTEM did not converge for mass flow rate
   **   ~~~   ** Check values should be zero. Most Recent values listed first.
   **   ~~~   ** Demand-to-Supply interface mass flow rate check value iteration history trace: 2.310569E-002,2.310569E-002,2.310569E-002,2.310569E-002,2.310569E-002,2.310569E-002,2.310569E-002,2.310569E-002,2.310569E-002,2.310569E-002,
   **   ~~~   ** Supply-to-demand interface deck 1 mass flow rate check value iteration history trace: 2.310569E-002,2.310569E-002,2.310569E-002,2.310569E-002,2.310569E-002,2.310569E-002,2.310569E-002,2.310569E-002,2.310569E-002,2.310569E-002,
   **   ~~~   ** Air System Named = CENTRAL SYSTEM did not converge for energy
   **   ~~~   ** Check values should be zero. Most Recent values listed first.
   **   ~~~   ** Demand-to-Supply interface energy check value iteration history trace: 456.565310,456.565310,456.565310,456.565310,456.565310,456.565310,456.565310,456.565310,456.565310,456.565310,
   **   ~~~   ** Supply-to-demand interface deck 1 energy check value iteration history trace: 845.017045,845.017044,845.017044,845.017044,845.017044,845.017044,845.017044,845.017044,845.017044,845.017044,
   ** Warning ** SimHVAC: Maximum iterations (20) exceeded for all HVAC loops, at ANNUAL, 05/24 08:30 - 08:45
   **   ~~~   ** The solution for one or more of the Air Loop HVAC systems did not appear to converge
   **   ~~~   ** Air System Named = CENTRAL SYSTEM did not converge for mass flow rate
   **   ~~~   ** Check values should be zero. Most Recent values listed first.
   **   ~~~   ** Demand-to-Supply interface mass flow rate check value iteration history trace: 5.762810E-002,5.762810E-002,5.762810E-002,5.762810E-002,5.762810E-002,5.762810E-002,5.762810E-002,5.762810E-002,5.762810E-002,5.762810E-002,
   **   ~~~   ** Supply-to-demand interface deck 1 mass flow rate check value iteration history trace: 5.762810E-002,5.762810E-002,5.762810E-002,5.762810E-002,5.762810E-002,5.762810E-002,5.762810E-002,5.762810E-002,5.762810E-002,5.762810E-002,
   **   ~~~   ** Air System Named = CENTRAL SYSTEM did not converge for energy
   **   ~~~   ** Check values should be zero. Most Recent values listed first.
   **   ~~~   ** Demand-to-Supply interface energy check value iteration history trace: 1134.367972,1134.367972,1134.367972,1134.367972,1134.367972,1134.367972,1134.367972,1134.367972,1134.367972,1134.367972,
   **   ~~~   ** Supply-to-demand interface deck 1 energy check value iteration history trace: 2136.468118,2136.468118,2136.468118,2136.468118,2136.468118,2136.468118,2136.468118,2136.468117,2136.468117,2136.468117,
   ** Warning ** SimHVAC: Maximum iterations (20) exceeded for all HVAC loops, at ANNUAL, 05/24 11:36 - 11:38
   **   ~~~   ** The solution for one or more of the Air Loop HVAC systems did not appear to converge
   **   ~~~   ** Air System Named = CENTRAL SYSTEM did not converge for mass flow rate
   **   ~~~   ** Check values should be zero. Most Recent values listed first.
   **   ~~~   ** Demand-to-Supply interface mass flow rate check value iteration history trace: 4.539172E-002,4.539172E-002,4.539172E-002,4.539172E-002,4.539172E-002,4.539172E-002,4.539172E-002,4.539172E-002,4.539172E-002,4.539172E-002,
   **   ~~~   ** Supply-to-demand interface deck 1 mass flow rate check value iteration history trace: 4.539172E-002,4.539172E-002,4.539172E-002,4.539172E-002,4.539172E-002,4.539172E-002,4.539172E-002,4.539172E-002,4.539172E-002,4.539172E-002,
   **   ~~~   ** Air System Named = CENTRAL SYSTEM did not converge for energy
   **   ~~~   ** Check values should be zero. Most Recent values listed first.
   **   ~~~   ** Demand-to-Supply interface energy check value iteration history trace: 899.006385,899.006385,899.006385,899.006385,899.006385,899.006385,899.006385,899.006385,899.006385,899.006385,
   **   ~~~   ** Supply-to-demand interface deck 1 energy check value iteration history trace: 1702.937328,1702.937328,1702.937328,1702.937328,1702.937328,1702.937328,1702.937328,1702.937328,1702.937328,1702.937328,
   ** Warning ** SimHVAC: Maximum iterations (20) exceeded for all HVAC loops, at ANNUAL, 05/28 04:05 - 04:10
   **   ~~~   ** The solution for one or more of the Air Loop HVAC systems did not appear to converge
   **   ~~~   ** Air System Named = CENTRAL SYSTEM did not converge for mass flow rate
   **   ~~~   ** Check values should be zero. Most Recent values listed first.
   **   ~~~   ** Demand-to-Supply interface mass flow rate check value iteration history trace: 6.406307E-002,6.406307E-002,6.406307E-002,6.406307E-002,6.406307E-002,6.406307E-002,6.406307E-002,6.406307E-002,6.406307E-002,6.406307E-002,
   **   ~~~   ** Supply-to-demand interface deck 1 mass flow rate check value iteration history trace: 6.406307E-002,6.406307E-002,6.406307E-002,6.406307E-002,6.406307E-002,6.406307E-002,6.406307E-002,6.406307E-002,6.406307E-002,6.406307E-002,
   **   ~~~   ** Air System Named = CENTRAL SYSTEM did not converge for energy
   **   ~~~   ** Check values should be zero. Most Recent values listed first.
   **   ~~~   ** Demand-to-Supply interface energy check value iteration history trace: 1198.577098,1198.577098,1198.577098,1198.577098,1198.577098,1198.577098,1198.577098,1198.577098,1198.577098,1198.577098,
   **   ~~~   ** Supply-to-demand interface deck 1 energy check value iteration history trace: 1942.865571,1942.865571,1942.865571,1942.865571,1942.865571,1942.865571,1942.865571,1942.865571,1942.865571,1942.865571,
   ** Warning ** SimHVAC: Maximum iterations (20) exceeded for all HVAC loops, at ANNUAL, 05/30 08:01 - 08:03
   **   ~~~   ** The solution for one or more of the Air Loop HVAC systems did not appear to converge
   **   ~~~   ** Air System Named = CENTRAL SYSTEM did not converge for mass flow rate
   **   ~~~   ** Check values should be zero. Most Recent values listed first.
   **   ~~~   ** Demand-to-Supply interface mass flow rate check value iteration history trace: 4.914786E-002,4.914786E-002,4.914786E-002,4.914786E-002,4.914786E-002,4.914786E-002,4.914786E-002,4.914786E-002,4.914786E-002,4.914786E-002,
   **   ~~~   ** Supply-to-demand interface deck 1 mass flow rate check value iteration history trace: 4.914786E-002,4.914786E-002,4.914786E-002,4.914786E-002,4.914786E-002,4.914786E-002,4.914786E-002,4.914786E-002,4.914786E-002,4.914786E-002,
   **   ~~~   ** Air System Named = CENTRAL SYSTEM did not converge for energy
   **   ~~~   ** Check values should be zero. Most Recent values listed first.
   **   ~~~   ** Demand-to-Supply interface energy check value iteration history trace: 971.889131,971.889131,971.889131,971.889131,971.889131,971.889131,971.889131,971.889131,971.889131,971.889131,
   **   ~~~   ** Supply-to-demand interface deck 1 energy check value iteration history trace: 1829.457170,1829.457170,1829.457170,1829.457170,1829.457169,1829.457169,1829.457169,1829.457169,1829.457169,1829.457169,
   ** Warning ** SimHVAC: Maximum iterations (20) exceeded for all HVAC loops, at ANNUAL, 06/08 10:55 - 11:00
   **   ~~~   ** The solution for one or more of the Air Loop HVAC systems did not appear to converge
   **   ~~~   ** Air System Named = CENTRAL SYSTEM did not converge for mass flow rate
   **   ~~~   ** Check values should be zero. Most Recent values listed first.
   **   ~~~   ** Demand-to-Supply interface mass flow rate check value iteration history trace: 6.016934E-002,6.016934E-002,6.016934E-002,6.016934E-002,6.016934E-002,6.016934E-002,6.016934E-002,6.016934E-002,6.016934E-002,6.016934E-002,
   **   ~~~   ** Supply-to-demand interface deck 1 mass flow rate check value iteration history trace: 6.016934E-002,6.016934E-002,6.016934E-002,6.016934E-002,6.016934E-002,6.016934E-002,6.016934E-002,6.016934E-002,6.016934E-002,6.016934E-002,
   **   ~~~   ** Air System Named = CENTRAL SYSTEM did not converge for energy
   **   ~~~   ** Check values should be zero. Most Recent values listed first.
   **   ~~~   ** Demand-to-Supply interface energy check value iteration history trace: 1192.366087,1192.366087,1192.366087,1192.366087,1192.366087,1192.366087,1192.366086,1192.366086,1192.366086,1192.366086,
   **   ~~~   ** Supply-to-demand interface deck 1 energy check value iteration history trace: 2227.823995,2227.823995,2227.823995,2227.823995,2227.823995,2227.823995,2227.823994,2227.823994,2227.823994,2227.823994,
   ** Warning ** SimHVAC: Maximum iterations (20) exceeded for all HVAC loops, at ANNUAL, 06/09 09:45 - 09:52
   **   ~~~   ** The solution for one or more of the Air Loop HVAC systems did not appear to converge
   **   ~~~   ** Air System Named = CENTRAL SYSTEM did not converge for mass flow rate
   **   ~~~   ** Check values should be zero. Most Recent values listed first.
   **   ~~~   ** Demand-to-Supply interface mass flow rate check value iteration history trace: 4.926956E-002,4.926956E-002,4.926956E-002,4.926956E-002,4.926956E-002,4.926956E-002,4.926956E-002,4.926956E-002,4.926956E-002,4.926956E-002,
   **   ~~~   ** Supply-to-demand interface deck 1 mass flow rate check value iteration history trace: 4.926956E-002,4.926956E-002,4.926956E-002,4.926956E-002,4.926956E-002,4.926956E-002,4.926956E-002,4.926956E-002,4.926956E-002,4.926956E-002,
   **   ~~~   ** Air System Named = CENTRAL SYSTEM did not converge for energy
   **   ~~~   ** Check values should be zero. Most Recent values listed first.
   **   ~~~   ** Demand-to-Supply interface energy check value iteration history trace: 976.325477,976.325477,976.325477,976.325477,976.325477,976.325477,976.325477,976.325477,976.325476,976.325476,
   **   ~~~   ** Supply-to-demand interface deck 1 energy check value iteration history trace: 1823.681124,1823.681124,1823.681123,1823.681123,1823.681123,1823.681123,1823.681123,1823.681123,1823.681123,1823.681123,
   ** Warning ** SimHVAC: Maximum iterations (20) exceeded for all HVAC loops, at ANNUAL, 06/11 13:08 - 13:15
   **   ~~~   ** The solution for one or more of the Air Loop HVAC systems did not appear to converge
   **   ~~~   ** Air System Named = CENTRAL SYSTEM did not converge for mass flow rate
   **   ~~~   ** Check values should be zero. Most Recent values listed first.
   **   ~~~   ** Demand-to-Supply interface mass flow rate check value iteration history trace: 4.806734E-002,4.806734E-002,4.806734E-002,4.806734E-002,4.806734E-002,4.806734E-002,4.806734E-002,4.806734E-002,4.806734E-002,4.806734E-002,
   **   ~~~   ** Supply-to-demand interface deck 1 mass flow rate check value iteration history trace: 4.806734E-002,4.806734E-002,4.806734E-002,4.806734E-002,4.806734E-002,4.806734E-002,4.806734E-002,4.806734E-002,4.806734E-002,4.806734E-002,
   **   ~~~   ** Air System Named = CENTRAL SYSTEM did not converge for energy
   **   ~~~   ** Check values should be zero. Most Recent values listed first.
   **   ~~~   ** Demand-to-Supply interface energy check value iteration history trace: 937.993117,937.993117,937.993117,937.993117,937.993117,937.993117,937.993117,937.993117,937.993117,937.993117,
   **   ~~~   ** Supply-to-demand interface deck 1 energy check value iteration history trace: 1799.262018,1799.262018,1799.262018,1799.262018,1799.262018,1799.262018,1799.262018,1799.262018,1799.262018,1799.262018,
   ** Warning ** SimHVAC: Maximum iterations (20) exceeded for all HVAC loops, at ANNUAL, 07/06 07:34 - 07:36
   **   ~~~   ** The solution for one or more of the Air Loop HVAC systems did not appear to converge
   **   ~~~   ** Air System Named = CENTRAL SYSTEM did not converge for mass flow rate
   **   ~~~   ** Check values should be zero. Most Recent values listed first.
   **   ~~~   ** Demand-to-Supply interface mass flow rate check value iteration history trace: 0.131263,0.131263,0.131263,0.131263,0.131263,0.131263,0.131263,0.131263,0.131263,0.131263,
   **   ~~~   ** Supply-to-demand interface deck 1 mass flow rate check value iteration history trace: 0.131263,0.131263,0.131263,0.131263,0.131263,0.131263,0.131263,0.131263,0.131263,0.131263,
   **   ~~~   ** Air System Named = CENTRAL SYSTEM did not converge for energy
   **   ~~~   ** Check values should be zero. Most Recent values listed first.
   **   ~~~   ** Demand-to-Supply interface energy check value iteration history trace: 3085.755585,3085.755585,3085.755586,3085.755586,3085.755586,3085.755587,3085.755587,3085.755587,3085.755588,3085.755588,
   **   ~~~   ** Supply-to-demand interface deck 1 energy check value iteration history trace: 1083.113085,1083.113085,1083.113085,1083.113085,1083.113085,1083.113085,1083.113086,1083.113086,1083.113086,1083.113086,
   ************* Simulation Error Summary *************
   ** Warning ** The following Report Variables were requested but not generated -- check.rdd file
   **   ~~~   ** Either the IDF did not contain these elements, the variable name is misspelled,
   **   ~~~   ** or the requested variable is an advanced output which requires Output : Diagnostics, DisplayAdvancedReportVariables;
   ************* Key=*, VarName=BASEBOARD TOTAL HEATING ENERGY, Frequency=
   ************* Key=*, VarName=WATER HEATER NATURALGAS ENERGY, Frequency=
   ************* Key=*, VarName=COOLING COIL TOTAL HEATING ENERGY, Frequency=
   ************* There are 34 unused schedules in input.
   ************* There are 388 unused week schedules in input.
   ************* There are 397 unused day schedules in input.
   ************* Use Output:Diagnostics,DisplayUnusedSchedules; to see them.
   *************
   ************* ===== Recurring Error Summary =====
   ************* The following recurring error messages occurred.
   *************
   *************  ** Warning ** "TOTAL HOT WATER LOAD" - Target water temperature should be less than or equal to the hot water temperature error continues...
   *************  **   ~~~   **   This error occurred 114793 total times;
   *************  **   ~~~   **   during Warmup 0 times;
   *************  **   ~~~   **   during Sizing 0 times.
   *************  **   ~~~   **   Max=9.809565  Min=4.963489E-004
   *************
   *************  ** Warning ** SimHVAC: Exceeding Maximum iterations for all HVAC loops, during ANNUAL continues
   *************  **   ~~~   **   This error occurred 10 total times;
   *************  **   ~~~   **   during Warmup 0 times;
   *************  **   ~~~   **   during Sizing 0 times.
   *************
   *************
   ************* ===== Final Error Summary =====
   ************* The following error categories occurred.  Consider correcting or noting.
   ************* Loads Initialization did not Converge
   ************* ..1) very high thermal mass such as very thick concrete (solution: increase max number of warmup
   ************* ..   days in the BUILDING object);
   ************* ..2) moderate mass and inadequate space conditioning such that the building keeps getting warmer
   ************* ..   and warmer on successive days (solution: add HVAC, check building thermal properties,
   ************* ..   check if infiltration is included, make sure HVAC properly controlled);
   ************* ..3) a soil layer modeled below the concrete slab - (solution remove this layer and read about
   ************* ..   ground temperatures in the Auxiliary Programs document).
   ************* ..4) unreasonable (too small) limits in the BUILDING object for temperature (.4 default) or
   ************* ..   loads tolerances (.04 default)
   ************* Nominally Unused Constructions
   ************* ..The nominally unused constructions warning is provided to alert you to potential conditions that can cause
   ************* ..extra time during simulation. Each construction is calculated by the algorithm indicated in the HeatBalanceAlgorithm
   ************* ..object. You may remove the constructions indicated (when you use the DisplayExtraWarnings option).
   *************
   ************* EnergyPlus Warmup Error Summary. During Warmup: 1 Warning; 2 Severe Errors.
   ************* EnergyPlus Sizing Error Summary. During Sizing: 4 Warning; 0 Severe Errors.
   ************* EnergyPlus Completed Successfully-- 114835 Warning; 2 Severe Errors; Elapsed Time=00hr 01min 47.19sec
