Program Version,EnergyPlus, Version 22.2.0-c249759bad, YMD=2023.09.01 19:16,
   ************* Beginning Zone Sizing Calculations
   ** Warning ** ProcessScheduleInput: Schedule:Constant="ALWAYS ON DISCRETE", Schedule Type Limits Name="ONOFF" not found -- will not be validated
   ** Warning ** Foundation:Kiva="KIVA FOUNDATION", no Interior Horizontal Insulation Material Name defined
   **   ~~~   ** Interior Horizontal Insulation Depth will not be used.
   ** Warning ** CheckUsedConstructions: There are 15 nominally unused constructions in input.
   **   ~~~   ** Each Unused construction is shown.
   ************* Construction=INTERIOR FLOOR
   ************* Construction=INTERIOR WINDOW
   ************* Construction=EXTERIOR DOOR
   ************* Construction=INTERIOR DOOR
   ************* Construction=GABLE CONSTRUCTION
   ************* Construction=CRAWL_FLOOR
   ************* Construction=INSULATED PIPE
   ************* Construction=PLAIN PIPE
   ************* Construction=TDD PIPE
   ************* Construction=TDD DOME
   ************* Construction=TDD DIFFUSER
   ************* Construction=CRAWL WALL
   ************* Construction=CEILING-FLOOR-LAYER
   ************* Construction=SLAB CONSTRUCTION W FULL R10 INSULATION
   ************* Construction=SLAB CONSTRUCTION W FULL R5 INSULATION
   ** Warning ** GetDXCoils: Coil:Heating:DX:SingleSpeed="DX_HEATING_COIL" curve values
   **   ~~~   ** ... Defrost Energy Input Ratio Function of Temperature Curve Name = DEFROSTEIR output is not equal to 1.0 (+ or - 10%) at rated conditions.
   **   ~~~   ** ... Curve output at rated conditions = 0.152
   ************* Beginning System Sizing Calculations
   ************* Beginning Plant Sizing Calculations
   ** Warning ** Coil:WaterHeating:AirToWaterHeatPump:Wrapped "HEAT PUMP WATER HEATER EVAPORATOR": Rated air volume flow rate per watt of rated total water heating capacity is out of range
   **   ~~~   ** Min Rated Vol Flow Per Watt=[4.027E-005], Rated Vol Flow Per Watt=[1.510E-004], Max Rated Vol Flow Per Watt=[8.056E-005]. See Input-Output Reference Manual for valid range.
   ************* SizeFan: : Potential issue with equipment sizing for Fan:OnOff HEAT PUMP WATER HEATER FAN
   **   ~~~   ** User-Specified Maximum Flow Rate [m3/s] = 0.22653
   **   ~~~   ** differs from Design Size Maximum Flow Rate [m3/s] = 7.55250E-002
   **   ~~~   ** This may, or may not, indicate mismatched component sizes.
   **   ~~~   ** Verify that the value entered is intended and is consistent with other components.
   ** Warning ** Water heater = WATER HEATER TANK:  Recovery Efficiency and Energy Factor could not be calculated during the test for standard ratings
   **   ~~~   ** Setpoint was never recovered and/or heater never turned on
   ** Warning ** Check input. Pump nominal power or motor efficiency is set to 0, for pump=MAINS PRESSURE
   ** Warning ** Output:Meter: invalid Key Name="ELECTRIC_RANGE:INTERIOREQUIPMENT:ELECTRICITY" - not found.
   ** Warning ** Output:Meter: invalid Key Name="ELECTRIC_DRYER:INTERIOREQUIPMENT:ELECTRICITY" - not found.
   ** Warning ** Output:Meter: invalid Key Name="HEATRECOVERY:ELECTRICITY" - not found.
   ** Warning ** Output:Meter: invalid Key Name="HEATING:NATURALGAS" - not found.
   ** Warning ** Output:Meter: invalid Key Name="WATERSYSTEMS:NATURALGAS" - not found.
   ** Warning ** Output:Meter: invalid Key Name="PROPANE:FACILITY" - not found.
   ** Warning ** Output:Meter: invalid Key Name="HEATING:PROPANE" - not found.
   ************* Testing Individual Branch Integrity
   ************* All Branches passed integrity testing
   ************* Testing Individual Supply Air Path Integrity
   ************* All Supply Air Paths passed integrity testing
   ************* Testing Individual Return Air Path Integrity
   ************* All Return Air Paths passed integrity testing
   ************* No node connection errors were found.
   ************* Beginning Simulation
   ** Warning ** AirflowNetwork::Solver::validate_distribution: Heat pump water heater is simulated along with an AirflowNetwork but is not included in the AirflowNetwork.
   ** Severe  ** CheckWarmupConvergence: Loads Initialization, Zone="LIVING" did not converge after 25 warmup days.
   **   ~~~   ** See Warmup Convergence Information in .eio file for details.
   **   ~~~   ** ...Environment(SizingPeriod)="EXTREME_WINTER"
   **   ~~~   ** ..Max Temp Comparison = 3.97E-004 vs Temperature Convergence Tolerance=5.00E-002 - Pass Convergence
   **   ~~~   ** ..Min Temp Comparison = 3.30E-003 vs Temperature Convergence Tolerance=5.00E-002 - Pass Convergence
   **   ~~~   ** ..Max Heat Load Comparison = 9.4784E-002 vs Loads Convergence Tolerance=5.00E-002 - Fail Convergence
   **   ~~~   ** ..Max Cool Load Comparison = 1.4671E-004 vs Loads Convergence Tolerance=5.00E-002 - Pass Convergence
   ** Severe  ** CheckWarmupConvergence: Loads Initialization, Zone="ATTIC" did not converge after 25 warmup days.
   **   ~~~   ** ...Environment(SizingPeriod)="EXTREME_WINTER"
   **   ~~~   ** ..Max Temp Comparison = 1.93E-002 vs Temperature Convergence Tolerance=5.00E-002 - Pass Convergence
   **   ~~~   ** ..Min Temp Comparison = 0.24 vs Temperature Convergence Tolerance=5.00E-002 - Fail Convergence
   **   ~~~   ** ..Max Heat Load Comparison = 0.0000 vs Loads Convergence Tolerance=5.00E-002 - Pass Convergence
   **   ~~~   ** ..Max Cool Load Comparison = 0.0000 vs Loads Convergence Tolerance=5.00E-002 - Pass Convergence
   ** Warning ** CalcEquipmentFlowRates: "TOTAL HOT WATER LOAD" - Target water temperature is greater than the hot water temperature by (0.25 C)
   **   ~~~   **  Environment=EXTREME_WINTER, at Simulation time=02/03 06:45 - 07:00
   **   ~~~   ** ...target water temperature     = 53.33 C
   **   ~~~   ** ...hot water temperature        = 53.09 C
   **   ~~~   ** ...Target water temperature should be less than or equal to the hot water temperature. Verify temperature setpoints and schedules.
   ** Warning ** SimHVAC: Maximum iterations (20) exceeded for all HVAC loops, at EXTREME_SUMMER, 07/17 04:08 - 04:15
   **   ~~~   ** The solution for one or more of the Air Loop HVAC systems did not appear to converge
   **   ~~~   ** Air System Named = CENTRAL SYSTEM did not converge for mass flow rate
   **   ~~~   ** Check values should be zero. Most Recent values listed first.
   **   ~~~   ** Demand-to-Supply interface mass flow rate check value iteration history trace: 0.108806,0.108806,0.108806,0.108806,0.108806,0.108806,0.108806,0.108806,0.108806,0.108806,
   **   ~~~   ** Supply-to-demand interface deck 1 mass flow rate check value iteration history trace: 0.108806,0.108806,0.108806,0.108806,0.108806,0.108806,0.108806,0.108806,0.108806,0.108806,
   **   ~~~   ** Air System Named = CENTRAL SYSTEM did not converge for energy
   **   ~~~   ** Check values should be zero. Most Recent values listed first.
   **   ~~~   ** Demand-to-Supply interface energy check value iteration history trace: 2684.611522,2684.611523,2684.611524,2684.611524,2684.611525,2684.611526,2684.611527,2684.611528,2684.611529,2684.611530,
   **   ~~~   ** Supply-to-demand interface deck 1 energy check value iteration history trace: 1419.542744,1419.542745,1419.542745,1419.542746,1419.542746,1419.542746,1419.542747,1419.542747,1419.542748,1419.542748,
   ** Warning ** SimHVAC: Maximum iterations (20) exceeded for all HVAC loops, at ANNUAL, 02/10 18:38 - 18:45
   **   ~~~   ** The solution for one or more of the Air Loop HVAC systems did not appear to converge
   **   ~~~   ** Air System Named = CENTRAL SYSTEM did not converge for mass flow rate
   **   ~~~   ** Check values should be zero. Most Recent values listed first.
   **   ~~~   ** Demand-to-Supply interface mass flow rate check value iteration history trace: 6.759209E-002,6.759209E-002,6.759209E-002,6.759209E-002,6.759209E-002,6.759209E-002,6.759209E-002,6.759209E-002,6.759209E-002,6.759209E-002,
   **   ~~~   ** Supply-to-demand interface deck 1 mass flow rate check value iteration history trace: 6.759209E-002,6.759209E-002,6.759209E-002,6.759209E-002,6.759209E-002,6.759209E-002,6.759209E-002,6.759209E-002,6.759209E-002,6.759209E-002,
   **   ~~~   ** Air System Named = CENTRAL SYSTEM did not converge for energy
   **   ~~~   ** Check values should be zero. Most Recent values listed first.
   **   ~~~   ** Demand-to-Supply interface energy check value iteration history trace: 1338.876039,1338.876039,1338.876038,1338.876038,1338.876038,1338.876038,1338.876038,1338.876038,1338.876038,1338.876038,
   **   ~~~   ** Supply-to-demand interface deck 1 energy check value iteration history trace: 2150.280726,2150.280725,2150.280725,2150.280725,2150.280725,2150.280725,2150.280725,2150.280725,2150.280725,2150.280725,
   ** Warning ** SimHVAC: Maximum iterations (20) exceeded for all HVAC loops, at ANNUAL, 04/06 11:15 - 11:30
   **   ~~~   ** The solution for one or more of the Air Loop HVAC systems did not appear to converge
   **   ~~~   ** Air System Named = CENTRAL SYSTEM did not converge for mass flow rate
   **   ~~~   ** Check values should be zero. Most Recent values listed first.
   **   ~~~   ** Demand-to-Supply interface mass flow rate check value iteration history trace: 7.840771E-002,7.840771E-002,7.840771E-002,7.840771E-002,7.840771E-002,7.840771E-002,7.840771E-002,7.840771E-002,7.840771E-002,7.840771E-002,
   **   ~~~   ** Supply-to-demand interface deck 1 mass flow rate check value iteration history trace: 7.840771E-002,7.840771E-002,7.840771E-002,7.840771E-002,7.840771E-002,7.840771E-002,7.840771E-002,7.840771E-002,7.840771E-002,7.840771E-002,
   **   ~~~   ** Air System Named = CENTRAL SYSTEM did not converge for energy
   **   ~~~   ** Check values should be zero. Most Recent values listed first.
   **   ~~~   ** Demand-to-Supply interface energy check value iteration history trace: 1551.350812,1551.350812,1551.350812,1551.350812,1551.350812,1551.350812,1551.350812,1551.350812,1551.350812,1551.350812,
   **   ~~~   ** Supply-to-demand interface deck 1 energy check value iteration history trace: 2581.944648,2581.944648,2581.944647,2581.944647,2581.944647,2581.944647,2581.944647,2581.944647,2581.944647,2581.944646,
   ** Warning ** SimHVAC: Maximum iterations (20) exceeded for all HVAC loops, at ANNUAL, 04/08 10:27 - 10:30
   **   ~~~   ** The solution for one or more of the Air Loop HVAC systems did not appear to converge
   **   ~~~   ** Air System Named = CENTRAL SYSTEM did not converge for mass flow rate
   **   ~~~   ** Check values should be zero. Most Recent values listed first.
   **   ~~~   ** Demand-to-Supply interface mass flow rate check value iteration history trace: 6.280467E-002,6.280467E-002,6.280467E-002,6.280467E-002,6.280467E-002,6.280467E-002,6.280467E-002,6.280467E-002,6.280467E-002,6.280467E-002,
   **   ~~~   ** Supply-to-demand interface deck 1 mass flow rate check value iteration history trace: 6.280467E-002,6.280467E-002,6.280467E-002,6.280467E-002,6.280467E-002,6.280467E-002,6.280467E-002,6.280467E-002,6.280467E-002,6.280467E-002,
   **   ~~~   ** Air System Named = CENTRAL SYSTEM did not converge for energy
   **   ~~~   ** Check values should be zero. Most Recent values listed first.
   **   ~~~   ** Demand-to-Supply interface energy check value iteration history trace: 1235.524279,1235.524278,1235.524278,1235.524278,1235.524278,1235.524278,1235.524278,1235.524278,1235.524278,1235.524278,
   **   ~~~   ** Supply-to-demand interface deck 1 energy check value iteration history trace: 2317.128323,2317.128323,2317.128323,2317.128323,2317.128323,2317.128323,2317.128323,2317.128323,2317.128323,2317.128323,
   ** Warning ** SimHVAC: Maximum iterations (20) exceeded for all HVAC loops, at ANNUAL, 04/27 07:15 - 07:19
   **   ~~~   ** The solution for one or more of the Air Loop HVAC systems did not appear to converge
   **   ~~~   ** Air System Named = CENTRAL SYSTEM did not converge for mass flow rate
   **   ~~~   ** Check values should be zero. Most Recent values listed first.
   **   ~~~   ** Demand-to-Supply interface mass flow rate check value iteration history trace: 4.765988E-002,4.765988E-002,4.765988E-002,4.765988E-002,4.765988E-002,4.765988E-002,4.765988E-002,4.765988E-002,4.765988E-002,4.765988E-002,
   **   ~~~   ** Supply-to-demand interface deck 1 mass flow rate check value iteration history trace: 4.765988E-002,4.765988E-002,4.765988E-002,4.765988E-002,4.765988E-002,4.765988E-002,4.765988E-002,4.765988E-002,4.765988E-002,4.765988E-002,
   **   ~~~   ** Air System Named = CENTRAL SYSTEM did not converge for energy
   **   ~~~   ** Check values should be zero. Most Recent values listed first.
   **   ~~~   ** Demand-to-Supply interface energy check value iteration history trace: 944.439333,944.439333,944.439333,944.439333,944.439333,944.439333,944.439333,944.439333,944.439333,944.439333,
   **   ~~~   ** Supply-to-demand interface deck 1 energy check value iteration history trace: 1714.263584,1714.263584,1714.263584,1714.263584,1714.263584,1714.263584,1714.263584,1714.263584,1714.263584,1714.263583,
   ** Warning ** SimHVAC: Maximum iterations (20) exceeded for all HVAC loops, at ANNUAL, 04/29 05:45 - 05:52
   **   ~~~   ** The solution for one or more of the Air Loop HVAC systems did not appear to converge
   **   ~~~   ** Air System Named = CENTRAL SYSTEM did not converge for mass flow rate
   **   ~~~   ** Check values should be zero. Most Recent values listed first.
   **   ~~~   ** Demand-to-Supply interface mass flow rate check value iteration history trace: 4.304371E-002,4.304371E-002,4.304371E-002,4.304371E-002,4.304371E-002,4.304371E-002,4.304371E-002,4.304371E-002,4.304371E-002,4.304371E-002,
   **   ~~~   ** Supply-to-demand interface deck 1 mass flow rate check value iteration history trace: 4.304371E-002,4.304371E-002,4.304371E-002,4.304371E-002,4.304371E-002,4.304371E-002,4.304371E-002,4.304371E-002,4.304371E-002,4.304371E-002,
   **   ~~~   ** Air System Named = CENTRAL SYSTEM did not converge for energy
   **   ~~~   ** Check values should be zero. Most Recent values listed first.
   **   ~~~   ** Demand-to-Supply interface energy check value iteration history trace: 851.459530,851.459530,851.459530,851.459530,851.459530,851.459530,851.459530,851.459530,851.459530,851.459530,
   **   ~~~   ** Supply-to-demand interface deck 1 energy check value iteration history trace: 1639.615447,1639.615446,1639.615446,1639.615446,1639.615446,1639.615446,1639.615446,1639.615446,1639.615446,1639.615446,
   ** Warning ** SimHVAC: Maximum iterations (20) exceeded for all HVAC loops, at ANNUAL, 05/27 06:15 - 06:30
   **   ~~~   ** The solution for one or more of the Air Loop HVAC systems did not appear to converge
   **   ~~~   ** Air System Named = CENTRAL SYSTEM did not converge for mass flow rate
   **   ~~~   ** Check values should be zero. Most Recent values listed first.
   **   ~~~   ** Demand-to-Supply interface mass flow rate check value iteration history trace: 8.610539E-002,8.610539E-002,8.610539E-002,8.610539E-002,8.610539E-002,8.610539E-002,8.610539E-002,8.610539E-002,8.610539E-002,8.610539E-002,
   **   ~~~   ** Supply-to-demand interface deck 1 mass flow rate check value iteration history trace: 8.610539E-002,8.610539E-002,8.610539E-002,8.610539E-002,8.610539E-002,8.610539E-002,8.610539E-002,8.610539E-002,8.610539E-002,8.610539E-002,
   **   ~~~   ** Air System Named = CENTRAL SYSTEM did not converge for energy
   **   ~~~   ** Check values should be zero. Most Recent values listed first.
   **   ~~~   ** Demand-to-Supply interface energy check value iteration history trace: 2040.381366,2040.381366,2040.381367,2040.381367,2040.381368,2040.381368,2040.381369,2040.381369,2040.381370,2040.381370,
   **   ~~~   ** Supply-to-demand interface deck 1 energy check value iteration history trace: 965.891382,965.891382,965.891382,965.891382,965.891383,965.891383,965.891383,965.891383,965.891384,965.891384,
   ** Warning ** SimHVAC: Maximum iterations (20) exceeded for all HVAC loops, at ANNUAL, 06/02 21:30 - 21:45
   **   ~~~   ** The solution for one or more of the Air Loop HVAC systems did not appear to converge
   **   ~~~   ** Air System Named = CENTRAL SYSTEM did not converge for mass flow rate
   **   ~~~   ** Check values should be zero. Most Recent values listed first.
   **   ~~~   ** Demand-to-Supply interface mass flow rate check value iteration history trace: 3.652401E-002,3.652401E-002,3.652401E-002,3.652401E-002,3.652401E-002,3.652401E-002,3.652401E-002,3.652401E-002,3.652401E-002,3.652401E-002,
   **   ~~~   ** Supply-to-demand interface deck 1 mass flow rate check value iteration history trace: 3.652401E-002,3.652401E-002,3.652401E-002,3.652401E-002,3.652401E-002,3.652401E-002,3.652401E-002,3.652401E-002,3.652401E-002,3.652401E-002,
   **   ~~~   ** Air System Named = CENTRAL SYSTEM did not converge for energy
   **   ~~~   ** Check values should be zero. Most Recent values listed first.
   **   ~~~   ** Demand-to-Supply interface energy check value iteration history trace: 864.646949,864.646949,864.646949,864.646949,864.646949,864.646949,864.646949,864.646949,864.646949,864.646949,
   **   ~~~   ** Supply-to-demand interface deck 1 energy check value iteration history trace: 387.960496,387.960496,387.960496,387.960496,387.960496,387.960496,387.960496,387.960496,387.960496,387.960496,
   ** Warning ** SimHVAC: Maximum iterations (20) exceeded for all HVAC loops, at ANNUAL, 06/10 12:45 - 13:00
   **   ~~~   ** The solution for one or more of the Air Loop HVAC systems did not appear to converge
   **   ~~~   ** Air System Named = CENTRAL SYSTEM did not converge for mass flow rate
   **   ~~~   ** Check values should be zero. Most Recent values listed first.
   **   ~~~   ** Demand-to-Supply interface mass flow rate check value iteration history trace: 8.986186E-002,8.986186E-002,8.986186E-002,8.986186E-002,8.986186E-002,8.986186E-002,8.986186E-002,8.986186E-002,8.986186E-002,8.986186E-002,
   **   ~~~   ** Supply-to-demand interface deck 1 mass flow rate check value iteration history trace: 8.986186E-002,8.986186E-002,8.986186E-002,8.986186E-002,8.986186E-002,8.986186E-002,8.986186E-002,8.986186E-002,8.986186E-002,8.986186E-002,
   **   ~~~   ** Air System Named = CENTRAL SYSTEM did not converge for energy
   **   ~~~   ** Check values should be zero. Most Recent values listed first.
   **   ~~~   ** Demand-to-Supply interface energy check value iteration history trace: 2132.643512,2132.643512,2132.643513,2132.643513,2132.643513,2132.643513,2132.643513,2132.643513,2132.643514,2132.643514,
   **   ~~~   ** Supply-to-demand interface deck 1 energy check value iteration history trace: 976.819335,976.819335,976.819335,976.819335,976.819335,976.819335,976.819335,976.819336,976.819336,976.819336,
   ** Warning ** SimHVAC: Maximum iterations (20) exceeded for all HVAC loops, at ANNUAL, 06/12 01:08 - 01:15
   **   ~~~   ** The solution for one or more of the Air Loop HVAC systems did not appear to converge
   **   ~~~   ** Air System Named = CENTRAL SYSTEM did not converge for mass flow rate
   **   ~~~   ** Check values should be zero. Most Recent values listed first.
   **   ~~~   ** Demand-to-Supply interface mass flow rate check value iteration history trace: 9.760293E-002,9.760293E-002,9.760293E-002,9.760293E-002,9.760293E-002,9.760293E-002,9.760293E-002,9.760293E-002,9.760293E-002,9.760293E-002,
   **   ~~~   ** Supply-to-demand interface deck 1 mass flow rate check value iteration history trace: 9.760293E-002,9.760293E-002,9.760293E-002,9.760293E-002,9.760293E-002,9.760293E-002,9.760293E-002,9.760293E-002,9.760293E-002,9.760293E-002,
   **   ~~~   ** Air System Named = CENTRAL SYSTEM did not converge for energy
   **   ~~~   ** Check values should be zero. Most Recent values listed first.
   **   ~~~   ** Demand-to-Supply interface energy check value iteration history trace: 2408.729835,2408.729836,2408.729836,2408.729837,2408.729837,2408.729838,2408.729838,2408.729839,2408.729839,2408.729840,
   **   ~~~   ** Supply-to-demand interface deck 1 energy check value iteration history trace: 945.906183,945.906183,945.906183,945.906183,945.906183,945.906184,945.906184,945.906184,945.906184,945.906185,
   ** Warning ** SimHVAC: Maximum iterations (20) exceeded for all HVAC loops, at ANNUAL, 09/16 11:45 - 11:49
   **   ~~~   ** The solution for one or more of the Air Loop HVAC systems did not appear to converge
   **   ~~~   ** Air System Named = CENTRAL SYSTEM did not converge for mass flow rate
   **   ~~~   ** Check values should be zero. Most Recent values listed first.
   **   ~~~   ** Demand-to-Supply interface mass flow rate check value iteration history trace: 1.282793E-002,1.282793E-002,1.282793E-002,1.282793E-002,1.282793E-002,1.282793E-002,1.282793E-002,1.282793E-002,1.282793E-002,1.282793E-002,
   **   ~~~   ** Supply-to-demand interface deck 1 mass flow rate check value iteration history trace: 1.282793E-002,1.282793E-002,1.282793E-002,1.282793E-002,1.282793E-002,1.282793E-002,1.282793E-002,1.282793E-002,1.282793E-002,1.282793E-002,
   **   ~~~   ** Air System Named = CENTRAL SYSTEM did not converge for energy
   **   ~~~   ** Check values should be zero. Most Recent values listed first.
   **   ~~~   ** Demand-to-Supply interface energy check value iteration history trace: 299.494137,299.494138,299.494138,299.494138,299.494138,299.494138,299.494138,299.494138,299.494138,299.494138,
   **   ~~~   ** Supply-to-demand interface deck 1 energy check value iteration history trace: 116.371760,116.371760,116.371760,116.371760,116.371760,116.371760,116.371760,116.371760,116.371760,116.371760,
   ** Warning ** SimHVAC: Maximum iterations (20) exceeded for all HVAC loops, at ANNUAL, 10/02 23:53 - 24:00
   **   ~~~   ** The solution for one or more of the Air Loop HVAC systems did not appear to converge
   **   ~~~   ** Air System Named = CENTRAL SYSTEM did not converge for mass flow rate
   **   ~~~   ** Check values should be zero. Most Recent values listed first.
   **   ~~~   ** Demand-to-Supply interface mass flow rate check value iteration history trace: 4.393782E-002,4.393782E-002,4.393782E-002,4.393782E-002,4.393782E-002,4.393782E-002,4.393782E-002,4.393782E-002,4.393782E-002,4.393782E-002,
   **   ~~~   ** Supply-to-demand interface deck 1 mass flow rate check value iteration history trace: 4.393782E-002,4.393782E-002,4.393782E-002,4.393782E-002,4.393782E-002,4.393782E-002,4.393782E-002,4.393782E-002,4.393782E-002,4.393782E-002,
   **   ~~~   ** Air System Named = CENTRAL SYSTEM did not converge for energy
   **   ~~~   ** Check values should be zero. Most Recent values listed first.
   **   ~~~   ** Demand-to-Supply interface energy check value iteration history trace: 818.231081,818.231081,818.231081,818.231081,818.231081,818.231081,818.231080,818.231080,818.231080,818.231080,
   **   ~~~   ** Supply-to-demand interface deck 1 energy check value iteration history trace: 1574.761090,1574.761090,1574.761089,1574.761089,1574.761089,1574.761089,1574.761089,1574.761089,1574.761089,1574.761089,
   ** Warning ** SimHVAC: Maximum iterations (20) exceeded for all HVAC loops, at ANNUAL, 10/15 07:30 - 07:45
   **   ~~~   ** The solution for one or more of the Air Loop HVAC systems did not appear to converge
   **   ~~~   ** Air System Named = CENTRAL SYSTEM did not converge for mass flow rate
   **   ~~~   ** Check values should be zero. Most Recent values listed first.
   **   ~~~   ** Demand-to-Supply interface mass flow rate check value iteration history trace: 4.856977E-002,4.856977E-002,4.856977E-002,4.856977E-002,4.856977E-002,4.856977E-002,4.856977E-002,4.856977E-002,4.856977E-002,4.856977E-002,
   **   ~~~   ** Supply-to-demand interface deck 1 mass flow rate check value iteration history trace: 4.856977E-002,4.856977E-002,4.856977E-002,4.856977E-002,4.856977E-002,4.856977E-002,4.856977E-002,4.856977E-002,4.856977E-002,4.856977E-002,
   **   ~~~   ** Air System Named = CENTRAL SYSTEM did not converge for energy
   **   ~~~   ** Check values should be zero. Most Recent values listed first.
   **   ~~~   ** Demand-to-Supply interface energy check value iteration history trace: 962.424828,962.424828,962.424828,962.424828,962.424828,962.424828,962.424828,962.424828,962.424828,962.424828,
   **   ~~~   ** Supply-to-demand interface deck 1 energy check value iteration history trace: 1796.197785,1796.197785,1796.197785,1796.197785,1796.197785,1796.197785,1796.197785,1796.197785,1796.197785,1796.197785,
   ** Warning ** SimHVAC: Maximum iterations (20) exceeded for all HVAC loops, at ANNUAL, 10/20 03:15 - 03:30
   **   ~~~   ** The solution for one or more of the Air Loop HVAC systems did not appear to converge
   **   ~~~   ** Air System Named = CENTRAL SYSTEM did not converge for mass flow rate
   **   ~~~   ** Check values should be zero. Most Recent values listed first.
   **   ~~~   ** Demand-to-Supply interface mass flow rate check value iteration history trace: 3.731034E-002,3.731034E-002,3.731034E-002,3.731034E-002,3.731034E-002,3.731034E-002,3.731034E-002,3.731034E-002,3.731034E-002,3.731034E-002,
   **   ~~~   ** Supply-to-demand interface deck 1 mass flow rate check value iteration history trace: 3.731034E-002,3.731034E-002,3.731034E-002,3.731034E-002,3.731034E-002,3.731034E-002,3.731034E-002,3.731034E-002,3.731034E-002,3.731034E-002,
   **   ~~~   ** Air System Named = CENTRAL SYSTEM did not converge for energy
   **   ~~~   ** Check values should be zero. Most Recent values listed first.
   **   ~~~   ** Demand-to-Supply interface energy check value iteration history trace: 696.374666,696.374666,696.374666,696.374666,696.374666,696.374666,696.374666,696.374666,696.374666,696.374666,
   **   ~~~   ** Supply-to-demand interface deck 1 energy check value iteration history trace: 1377.642884,1377.642884,1377.642884,1377.642884,1377.642884,1377.642884,1377.642884,1377.642884,1377.642883,1377.642883,
   ************* Simulation Error Summary *************
   ** Warning ** The following Report Variables were requested but not generated -- check.rdd file
   **   ~~~   ** Either the IDF did not contain these elements, the variable name is misspelled,
   **   ~~~   ** or the requested variable is an advanced output which requires Output : Diagnostics, DisplayAdvancedReportVariables;
   ************* Key=*, VarName=BASEBOARD TOTAL HEATING ENERGY, Frequency=
   ************* Key=*, VarName=WATER HEATER NATURALGAS ENERGY, Frequency=
   ************* Key=*, VarName=COOLING COIL TOTAL HEATING ENERGY, Frequency=
   ************* There are 34 unused schedules in input.
   ************* There are 388 unused week schedules in input.
   ************* There are 397 unused day schedules in input.
   ************* Use Output:Diagnostics,DisplayUnusedSchedules; to see them.
   *************
   ************* ===== Recurring Error Summary =====
   ************* The following recurring error messages occurred.
   *************
   *************  ** Warning ** "TOTAL HOT WATER LOAD" - Target water temperature should be less than or equal to the hot water temperature error continues...
   *************  **   ~~~   **   This error occurred 81457 total times;
   *************  **   ~~~   **   during Warmup 0 times;
   *************  **   ~~~   **   during Sizing 0 times.
   *************  **   ~~~   **   Max=9.726179  Min=1.145361E-003
   *************
   *************  ** Warning ** SimHVAC: Exceeding Maximum iterations for all HVAC loops, during ANNUAL continues
   *************  **   ~~~   **   This error occurred 1 total times;
   *************  **   ~~~   **   during Warmup 0 times;
   *************  **   ~~~   **   during Sizing 0 times.
   *************
   *************
   ************* ===== Final Error Summary =====
   ************* The following error categories occurred.  Consider correcting or noting.
   ************* Loads Initialization did not Converge
   ************* ..1) very high thermal mass such as very thick concrete (solution: increase max number of warmup
   ************* ..   days in the BUILDING object);
   ************* ..2) moderate mass and inadequate space conditioning such that the building keeps getting warmer
   ************* ..   and warmer on successive days (solution: add HVAC, check building thermal properties,
   ************* ..   check if infiltration is included, make sure HVAC properly controlled);
   ************* ..3) a soil layer modeled below the concrete slab - (solution remove this layer and read about
   ************* ..   ground temperatures in the Auxiliary Programs document).
   ************* ..4) unreasonable (too small) limits in the BUILDING object for temperature (.4 default) or
   ************* ..   loads tolerances (.04 default)
   ************* Nominally Unused Constructions
   ************* ..The nominally unused constructions warning is provided to alert you to potential conditions that can cause
   ************* ..extra time during simulation. Each construction is calculated by the algorithm indicated in the HeatBalanceAlgorithm
   ************* ..object. You may remove the constructions indicated (when you use the DisplayExtraWarnings option).
   *************
   ************* EnergyPlus Warmup Error Summary. During Warmup: 1 Warning; 2 Severe Errors.
   ************* EnergyPlus Sizing Error Summary. During Sizing: 4 Warning; 0 Severe Errors.
   ************* EnergyPlus Completed Successfully-- 81489 Warning; 2 Severe Errors; Elapsed Time=00hr 01min 30.05sec
