Program Version,EnergyPlus, Version 22.2.0-c249759bad, YMD=2023.09.01 17:18,
   ************* Beginning Zone Sizing Calculations
   ** Warning ** ProcessScheduleInput: Schedule:Constant="ALWAYS ON DISCRETE", Schedule Type Limits Name="ONOFF" not found -- will not be validated
   ** Warning ** Foundation:Kiva="KIVA FOUNDATION", no Interior Horizontal Insulation Material Name defined
   **   ~~~   ** Interior Horizontal Insulation Depth will not be used.
   ** Warning ** CheckUsedConstructions: There are 15 nominally unused constructions in input.
   **   ~~~   ** Each Unused construction is shown.
   ************* Construction=INTERIOR FLOOR
   ************* Construction=INTERIOR WINDOW
   ************* Construction=EXTERIOR DOOR
   ************* Construction=INTERIOR DOOR
   ************* Construction=GABLE CONSTRUCTION
   ************* Construction=CRAWL_FLOOR
   ************* Construction=INSULATED PIPE
   ************* Construction=PLAIN PIPE
   ************* Construction=TDD PIPE
   ************* Construction=TDD DOME
   ************* Construction=TDD DIFFUSER
   ************* Construction=CRAWL WALL
   ************* Construction=CEILING-FLOOR-LAYER
   ************* Construction=SLAB CONSTRUCTION W FULL R10 INSULATION
   ************* Construction=SLAB CONSTRUCTION W FULL R5 INSULATION
   ** Warning ** GetDXCoils: Coil:Heating:DX:SingleSpeed="DX_HEATING_COIL" curve values
   **   ~~~   ** ... Defrost Energy Input Ratio Function of Temperature Curve Name = DEFROSTEIR output is not equal to 1.0 (+ or - 10%) at rated conditions.
   **   ~~~   ** ... Curve output at rated conditions = 0.152
   ************* Beginning System Sizing Calculations
   ************* Beginning Plant Sizing Calculations
   ** Warning ** Coil:WaterHeating:AirToWaterHeatPump:Wrapped "HEAT PUMP WATER HEATER EVAPORATOR": Rated air volume flow rate per watt of rated total water heating capacity is out of range
   **   ~~~   ** Min Rated Vol Flow Per Watt=[4.027E-005], Rated Vol Flow Per Watt=[1.510E-004], Max Rated Vol Flow Per Watt=[8.056E-005]. See Input-Output Reference Manual for valid range.
   ************* SizeFan: : Potential issue with equipment sizing for Fan:OnOff HEAT PUMP WATER HEATER FAN
   **   ~~~   ** User-Specified Maximum Flow Rate [m3/s] = 0.22653
   **   ~~~   ** differs from Design Size Maximum Flow Rate [m3/s] = 7.55250E-002
   **   ~~~   ** This may, or may not, indicate mismatched component sizes.
   **   ~~~   ** Verify that the value entered is intended and is consistent with other components.
   ** Warning ** Water heater = WATER HEATER TANK:  Recovery Efficiency and Energy Factor could not be calculated during the test for standard ratings
   **   ~~~   ** Setpoint was never recovered and/or heater never turned on
   ** Warning ** Check input. Pump nominal power or motor efficiency is set to 0, for pump=MAINS PRESSURE
   ** Warning ** Output:Meter: invalid Key Name="ELECTRIC_RANGE:INTERIOREQUIPMENT:ELECTRICITY" - not found.
   ** Warning ** Output:Meter: invalid Key Name="ELECTRIC_DRYER:INTERIOREQUIPMENT:ELECTRICITY" - not found.
   ** Warning ** Output:Meter: invalid Key Name="HEATRECOVERY:ELECTRICITY" - not found.
   ** Warning ** Output:Meter: invalid Key Name="HEATING:NATURALGAS" - not found.
   ** Warning ** Output:Meter: invalid Key Name="WATERSYSTEMS:NATURALGAS" - not found.
   ** Warning ** Output:Meter: invalid Key Name="PROPANE:FACILITY" - not found.
   ** Warning ** Output:Meter: invalid Key Name="HEATING:PROPANE" - not found.
   ************* Testing Individual Branch Integrity
   ************* All Branches passed integrity testing
   ************* Testing Individual Supply Air Path Integrity
   ************* All Supply Air Paths passed integrity testing
   ************* Testing Individual Return Air Path Integrity
   ************* All Return Air Paths passed integrity testing
   ************* No node connection errors were found.
   ************* Beginning Simulation
   ** Warning ** AirflowNetwork::Solver::validate_distribution: Heat pump water heater is simulated along with an AirflowNetwork but is not included in the AirflowNetwork.
   ** Warning ** CalcEquipmentFlowRates: "TOTAL HOT WATER LOAD" - Target water temperature is greater than the hot water temperature by (0.63 C)
   **   ~~~   **  Environment=EXTREME_WINTER, at Simulation time=02/03 06:00 - 06:15
   **   ~~~   ** ...target water temperature     = 53.33 C
   **   ~~~   ** ...hot water temperature        = 52.70 C
   **   ~~~   ** ...Target water temperature should be less than or equal to the hot water temperature. Verify temperature setpoints and schedules.
   ** Warning ** SimHVAC: Maximum iterations (20) exceeded for all HVAC loops, at EXTREME_WINTER, 02/09 21:45 - 21:52
   **   ~~~   ** The solution for one or more of the Air Loop HVAC systems did not appear to converge
   **   ~~~   ** Air System Named = CENTRAL SYSTEM did not converge for mass flow rate
   **   ~~~   ** Check values should be zero. Most Recent values listed first.
   **   ~~~   ** Demand-to-Supply interface mass flow rate check value iteration history trace: 6.078095E-002,6.078095E-002,6.078095E-002,6.078095E-002,6.078095E-002,6.078095E-002,6.078095E-002,6.078095E-002,6.078095E-002,6.078095E-002,
   **   ~~~   ** Supply-to-demand interface deck 1 mass flow rate check value iteration history trace: 6.078095E-002,6.078095E-002,6.078095E-002,6.078095E-002,6.078095E-002,6.078095E-002,6.078095E-002,6.078095E-002,6.078095E-002,6.078095E-002,
   **   ~~~   ** Air System Named = CENTRAL SYSTEM did not converge for energy
   **   ~~~   ** Check values should be zero. Most Recent values listed first.
   **   ~~~   ** Demand-to-Supply interface energy check value iteration history trace: 1204.840600,1204.840600,1204.840600,1204.840600,1204.840600,1204.840600,1204.840600,1204.840600,1204.840600,1204.840600,
   **   ~~~   ** Supply-to-demand interface deck 1 energy check value iteration history trace: 2036.616616,2036.616616,2036.616616,2036.616615,2036.616615,2036.616615,2036.616615,2036.616615,2036.616615,2036.616615,
   ** Warning ** SimHVAC: Maximum iterations (20) exceeded for all HVAC loops, at EXTREME_SUMMER, 06/24 05:15 - 05:30
   **   ~~~   ** The solution for one or more of the Air Loop HVAC systems did not appear to converge
   **   ~~~   ** Air System Named = CENTRAL SYSTEM did not converge for mass flow rate
   **   ~~~   ** Check values should be zero. Most Recent values listed first.
   **   ~~~   ** Demand-to-Supply interface mass flow rate check value iteration history trace: 0.305902,0.305902,0.305902,0.305902,0.305902,0.305902,0.305902,0.305902,0.305902,0.305902,
   **   ~~~   ** Supply-to-demand interface deck 1 mass flow rate check value iteration history trace: 0.305902,0.305902,0.305902,0.305902,0.305902,0.305902,0.305902,0.305902,0.305902,0.305902,
   **   ~~~   ** Air System Named = CENTRAL SYSTEM did not converge for energy
   **   ~~~   ** Check values should be zero. Most Recent values listed first.
   **   ~~~   ** Demand-to-Supply interface energy check value iteration history trace: 7560.379513,7560.379515,7560.379518,7560.379520,7560.379523,7560.379526,7560.379528,7560.379531,7560.379533,7560.379536,
   **   ~~~   ** Supply-to-demand interface deck 1 energy check value iteration history trace: 4468.717884,4468.717886,4468.717887,4468.717889,4468.717890,4468.717892,4468.717893,4468.717895,4468.717897,4468.717898,
   ** Warning ** SimHVAC: Maximum iterations (20) exceeded for all HVAC loops, at ANNUAL, 01/22 04:15 - 04:22
   **   ~~~   ** The solution for one or more of the Air Loop HVAC systems did not appear to converge
   **   ~~~   ** Air System Named = CENTRAL SYSTEM did not converge for mass flow rate
   **   ~~~   ** Check values should be zero. Most Recent values listed first.
   **   ~~~   ** Demand-to-Supply interface mass flow rate check value iteration history trace: 7.995205E-002,7.995205E-002,7.995205E-002,7.995205E-002,7.995205E-002,7.995205E-002,7.995205E-002,7.995205E-002,7.995205E-002,7.995205E-002,
   **   ~~~   ** Supply-to-demand interface deck 1 mass flow rate check value iteration history trace: 7.995205E-002,7.995205E-002,7.995205E-002,7.995205E-002,7.995205E-002,7.995205E-002,7.995205E-002,7.995205E-002,7.995205E-002,7.995205E-002,
   **   ~~~   ** Air System Named = CENTRAL SYSTEM did not converge for energy
   **   ~~~   ** Check values should be zero. Most Recent values listed first.
   **   ~~~   ** Demand-to-Supply interface energy check value iteration history trace: 1494.723200,1494.723200,1494.723200,1494.723200,1494.723200,1494.723200,1494.723200,1494.723200,1494.723200,1494.723199,
   **   ~~~   ** Supply-to-demand interface deck 1 energy check value iteration history trace: 2301.456998,2301.456997,2301.456997,2301.456997,2301.456997,2301.456997,2301.456997,2301.456997,2301.456996,2301.456996,
   ** Warning ** SimHVAC: Maximum iterations (20) exceeded for all HVAC loops, at ANNUAL, 02/11 11:38 - 11:39
   **   ~~~   ** The solution for one or more of the Air Loop HVAC systems did not appear to converge
   **   ~~~   ** Air System Named = CENTRAL SYSTEM did not converge for mass flow rate
   **   ~~~   ** Check values should be zero. Most Recent values listed first.
   **   ~~~   ** Demand-to-Supply interface mass flow rate check value iteration history trace: 7.528134E-002,7.528134E-002,7.528134E-002,7.528134E-002,7.528134E-002,7.528134E-002,7.528134E-002,7.528134E-002,7.528134E-002,7.528134E-002,
   **   ~~~   ** Supply-to-demand interface deck 1 mass flow rate check value iteration history trace: 7.528134E-002,7.528134E-002,7.528134E-002,7.528134E-002,7.528134E-002,7.528134E-002,7.528134E-002,7.528134E-002,7.528134E-002,7.528134E-002,
   **   ~~~   ** Air System Named = CENTRAL SYSTEM did not converge for energy
   **   ~~~   ** Check values should be zero. Most Recent values listed first.
   **   ~~~   ** Demand-to-Supply interface energy check value iteration history trace: 1489.205461,1489.205461,1489.205461,1489.205461,1489.205460,1489.205460,1489.205460,1489.205460,1489.205460,1489.205460,
   **   ~~~   ** Supply-to-demand interface deck 1 energy check value iteration history trace: 2294.039512,2294.039512,2294.039512,2294.039512,2294.039511,2294.039511,2294.039511,2294.039511,2294.039511,2294.039511,
   ** Warning ** SimHVAC: Maximum iterations (20) exceeded for all HVAC loops, at ANNUAL, 02/27 07:45 - 08:00
   **   ~~~   ** The solution for one or more of the Air Loop HVAC systems did not appear to converge
   **   ~~~   ** Air System Named = CENTRAL SYSTEM did not converge for mass flow rate
   **   ~~~   ** Check values should be zero. Most Recent values listed first.
   **   ~~~   ** Demand-to-Supply interface mass flow rate check value iteration history trace: 0.137252,0.137252,0.137252,0.137252,0.137252,0.137252,0.137252,0.137252,0.137252,0.137252,
   **   ~~~   ** Supply-to-demand interface deck 1 mass flow rate check value iteration history trace: 0.137252,0.137252,0.137252,0.137252,0.137252,0.137252,0.137252,0.137252,0.137252,0.137252,
   **   ~~~   ** Air System Named = CENTRAL SYSTEM did not converge for energy
   **   ~~~   ** Check values should be zero. Most Recent values listed first.
   **   ~~~   ** Demand-to-Supply interface energy check value iteration history trace: 3288.392242,3288.392243,3288.392244,3288.392245,3288.392245,3288.392246,3288.392247,3288.392248,3288.392248,3288.392249,
   **   ~~~   ** Supply-to-demand interface deck 1 energy check value iteration history trace: 1892.813548,1892.813548,1892.813549,1892.813549,1892.813549,1892.813550,1892.813550,1892.813551,1892.813551,1892.813552,
   ** Warning ** SimHVAC: Maximum iterations (20) exceeded for all HVAC loops, at ANNUAL, 03/04 10:54 - 10:57
   **   ~~~   ** The solution for one or more of the Air Loop HVAC systems did not appear to converge
   **   ~~~   ** Air System Named = CENTRAL SYSTEM did not converge for mass flow rate
   **   ~~~   ** Check values should be zero. Most Recent values listed first.
   **   ~~~   ** Demand-to-Supply interface mass flow rate check value iteration history trace: 4.417869E-002,4.417869E-002,4.417869E-002,4.417869E-002,4.417869E-002,4.417869E-002,4.417869E-002,4.417869E-002,4.417869E-002,4.417869E-002,
   **   ~~~   ** Supply-to-demand interface deck 1 mass flow rate check value iteration history trace: 4.417869E-002,4.417869E-002,4.417869E-002,4.417869E-002,4.417869E-002,4.417869E-002,4.417869E-002,4.417869E-002,4.417869E-002,4.417869E-002,
   **   ~~~   ** Air System Named = CENTRAL SYSTEM did not converge for energy
   **   ~~~   ** Check values should be zero. Most Recent values listed first.
   **   ~~~   ** Demand-to-Supply interface energy check value iteration history trace: 1038.003438,1038.003438,1038.003438,1038.003438,1038.003438,1038.003438,1038.003438,1038.003438,1038.003438,1038.003438,
   **   ~~~   ** Supply-to-demand interface deck 1 energy check value iteration history trace: 415.987263,415.987263,415.987263,415.987263,415.987263,415.987263,415.987263,415.987263,415.987263,415.987263,
   ** Warning ** SimHVAC: Maximum iterations (20) exceeded for all HVAC loops, at ANNUAL, 03/07 08:42 - 08:45
   **   ~~~   ** The solution for one or more of the Air Loop HVAC systems did not appear to converge
   **   ~~~   ** Air System Named = CENTRAL SYSTEM did not converge for mass flow rate
   **   ~~~   ** Check values should be zero. Most Recent values listed first.
   **   ~~~   ** Demand-to-Supply interface mass flow rate check value iteration history trace: 0.141371,0.141371,0.141371,0.141371,0.141371,0.141371,0.141371,0.141371,0.141371,0.141371,
   **   ~~~   ** Supply-to-demand interface deck 1 mass flow rate check value iteration history trace: 0.141371,0.141371,0.141371,0.141371,0.141371,0.141371,0.141371,0.141371,0.141371,0.141371,
   **   ~~~   ** Air System Named = CENTRAL SYSTEM did not converge for energy
   **   ~~~   ** Check values should be zero. Most Recent values listed first.
   **   ~~~   ** Demand-to-Supply interface energy check value iteration history trace: 3345.727522,3345.727522,3345.727523,3345.727524,3345.727524,3345.727525,3345.727526,3345.727526,3345.727527,3345.727528,
   **   ~~~   ** Supply-to-demand interface deck 1 energy check value iteration history trace: 1631.125298,1631.125298,1631.125298,1631.125298,1631.125299,1631.125299,1631.125299,1631.125300,1631.125300,1631.125300,
   ** Warning ** SimHVAC: Maximum iterations (20) exceeded for all HVAC loops, at ANNUAL, 03/09 23:38 - 23:45
   **   ~~~   ** The solution for one or more of the Air Loop HVAC systems did not appear to converge
   **   ~~~   ** Air System Named = CENTRAL SYSTEM did not converge for mass flow rate
   **   ~~~   ** Check values should be zero. Most Recent values listed first.
   **   ~~~   ** Demand-to-Supply interface mass flow rate check value iteration history trace: 0.115503,0.115503,0.115503,0.115503,0.115503,0.115503,0.115503,0.115503,0.115503,0.115503,
   **   ~~~   ** Supply-to-demand interface deck 1 mass flow rate check value iteration history trace: 0.115503,0.115503,0.115503,0.115503,0.115503,0.115503,0.115503,0.115503,0.115503,0.115503,
   **   ~~~   ** Air System Named = CENTRAL SYSTEM did not converge for energy
   **   ~~~   ** Check values should be zero. Most Recent values listed first.
   **   ~~~   ** Demand-to-Supply interface energy check value iteration history trace: 2845.046358,2845.046358,2845.046358,2845.046359,2845.046359,2845.046359,2845.046359,2845.046359,2845.046360,2845.046360,
   **   ~~~   ** Supply-to-demand interface deck 1 energy check value iteration history trace: 1715.359677,1715.359677,1715.359677,1715.359678,1715.359678,1715.359678,1715.359678,1715.359678,1715.359678,1715.359678,
   ** Warning ** SimHVAC: Maximum iterations (20) exceeded for all HVAC loops, at ANNUAL, 03/11 00:00 - 00:15
   **   ~~~   ** The solution for one or more of the Air Loop HVAC systems did not appear to converge
   **   ~~~   ** Air System Named = CENTRAL SYSTEM did not converge for mass flow rate
   **   ~~~   ** Check values should be zero. Most Recent values listed first.
   **   ~~~   ** Demand-to-Supply interface mass flow rate check value iteration history trace: 0.129624,0.129624,0.129624,0.129624,0.129624,0.129624,0.129624,0.129624,0.129624,0.129624,
   **   ~~~   ** Supply-to-demand interface deck 1 mass flow rate check value iteration history trace: 0.129624,0.129624,0.129624,0.129624,0.129624,0.129624,0.129624,0.129624,0.129624,0.129624,
   **   ~~~   ** Air System Named = CENTRAL SYSTEM did not converge for energy
   **   ~~~   ** Check values should be zero. Most Recent values listed first.
   **   ~~~   ** Demand-to-Supply interface energy check value iteration history trace: 3267.962721,3267.962721,3267.962722,3267.962722,3267.962723,3267.962724,3267.962724,3267.962725,3267.962725,3267.962726,
   **   ~~~   ** Supply-to-demand interface deck 1 energy check value iteration history trace: 1902.470001,1902.470002,1902.470002,1902.470002,1902.470003,1902.470003,1902.470003,1902.470004,1902.470004,1902.470004,
   ** Warning ** SimHVAC: Maximum iterations (20) exceeded for all HVAC loops, at ANNUAL, 03/24 21:38 - 21:45
   **   ~~~   ** The solution for one or more of the Air Loop HVAC systems did not appear to converge
   **   ~~~   ** Air System Named = CENTRAL SYSTEM did not converge for mass flow rate
   **   ~~~   ** Check values should be zero. Most Recent values listed first.
   **   ~~~   ** Demand-to-Supply interface mass flow rate check value iteration history trace: 0.179556,0.179556,0.179556,0.179556,0.179556,0.179556,0.179556,0.179556,0.179556,0.179556,
   **   ~~~   ** Supply-to-demand interface deck 1 mass flow rate check value iteration history trace: 0.179556,0.179556,0.179556,0.179556,0.179556,0.179556,0.179556,0.179556,0.179556,0.179556,
   **   ~~~   ** Air System Named = CENTRAL SYSTEM did not converge for energy
   **   ~~~   ** Check values should be zero. Most Recent values listed first.
   **   ~~~   ** Demand-to-Supply interface energy check value iteration history trace: 4349.068007,4349.068007,4349.068008,4349.068008,4349.068008,4349.068009,4349.068009,4349.068009,4349.068009,4349.068010,
   **   ~~~   ** Supply-to-demand interface deck 1 energy check value iteration history trace: 1764.686641,1764.686641,1764.686641,1764.686641,1764.686641,1764.686641,1764.686641,1764.686641,1764.686642,1764.686642,
   ** Warning ** SimHVAC: Maximum iterations (20) exceeded for all HVAC loops, at ANNUAL, 03/26 12:08 - 12:15
   **   ~~~   ** The solution for one or more of the Air Loop HVAC systems did not appear to converge
   **   ~~~   ** Air System Named = CENTRAL SYSTEM did not converge for mass flow rate
   **   ~~~   ** Check values should be zero. Most Recent values listed first.
   **   ~~~   ** Demand-to-Supply interface mass flow rate check value iteration history trace: 0.151074,0.151074,0.151074,0.151074,0.151074,0.151074,0.151074,0.151074,0.151074,0.151074,
   **   ~~~   ** Supply-to-demand interface deck 1 mass flow rate check value iteration history trace: 0.151074,0.151074,0.151074,0.151074,0.151074,0.151074,0.151074,0.151074,0.151074,0.151074,
   **   ~~~   ** Air System Named = CENTRAL SYSTEM did not converge for energy
   **   ~~~   ** Check values should be zero. Most Recent values listed first.
   **   ~~~   ** Demand-to-Supply interface energy check value iteration history trace: 3576.030702,3576.030702,3576.030703,3576.030703,3576.030704,3576.030704,3576.030704,3576.030705,3576.030705,3576.030706,
   **   ~~~   ** Supply-to-demand interface deck 1 energy check value iteration history trace: 1457.373532,1457.373532,1457.373532,1457.373532,1457.373533,1457.373533,1457.373533,1457.373533,1457.373533,1457.373533,
   ** Warning ** SimHVAC: Maximum iterations (20) exceeded for all HVAC loops, at ANNUAL, 12/11 02:00 - 02:15
   **   ~~~   ** The solution for one or more of the Air Loop HVAC systems did not appear to converge
   **   ~~~   ** Air System Named = CENTRAL SYSTEM did not converge for mass flow rate
   **   ~~~   ** Check values should be zero. Most Recent values listed first.
   **   ~~~   ** Demand-to-Supply interface mass flow rate check value iteration history trace: 5.515941E-002,5.515941E-002,5.515941E-002,5.515941E-002,5.515941E-002,5.515941E-002,5.515941E-002,5.515941E-002,5.515941E-002,5.515941E-002,
   **   ~~~   ** Supply-to-demand interface deck 1 mass flow rate check value iteration history trace: 5.515941E-002,5.515941E-002,5.515941E-002,5.515941E-002,5.515941E-002,5.515941E-002,5.515941E-002,5.515941E-002,5.515941E-002,5.515941E-002,
   **   ~~~   ** Air System Named = CENTRAL SYSTEM did not converge for energy
   **   ~~~   ** Check values should be zero. Most Recent values listed first.
   **   ~~~   ** Demand-to-Supply interface energy check value iteration history trace: 1026.243940,1026.243940,1026.243940,1026.243940,1026.243940,1026.243940,1026.243940,1026.243940,1026.243940,1026.243939,
   **   ~~~   ** Supply-to-demand interface deck 1 energy check value iteration history trace: 1791.622941,1791.622941,1791.622941,1791.622941,1791.622941,1791.622941,1791.622941,1791.622941,1791.622941,1791.622941,
   ** Warning ** SimHVAC: Maximum iterations (20) exceeded for all HVAC loops, at ANNUAL, 12/15 10:15 - 10:30
   **   ~~~   ** The solution for one or more of the Air Loop HVAC systems did not appear to converge
   **   ~~~   ** Air System Named = CENTRAL SYSTEM did not converge for mass flow rate
   **   ~~~   ** Check values should be zero. Most Recent values listed first.
   **   ~~~   ** Demand-to-Supply interface mass flow rate check value iteration history trace: 0.136473,0.136473,0.136473,0.136473,0.136473,0.136473,0.136473,0.136473,0.136473,0.136473,
   **   ~~~   ** Supply-to-demand interface deck 1 mass flow rate check value iteration history trace: 0.136473,0.136473,0.136473,0.136473,0.136473,0.136473,0.136473,0.136473,0.136473,0.136473,
   **   ~~~   ** Air System Named = CENTRAL SYSTEM did not converge for energy
   **   ~~~   ** Check values should be zero. Most Recent values listed first.
   **   ~~~   ** Demand-to-Supply interface energy check value iteration history trace: 3267.432565,3267.432566,3267.432567,3267.432568,3267.432569,3267.432570,3267.432571,3267.432572,3267.432573,3267.432574,
   **   ~~~   ** Supply-to-demand interface deck 1 energy check value iteration history trace: 1878.662616,1878.662617,1878.662617,1878.662618,1878.662619,1878.662619,1878.662620,1878.662620,1878.662621,1878.662621,
   ** Warning ** SimHVAC: Maximum iterations (20) exceeded for all HVAC loops, at ANNUAL, 12/18 11:55 - 11:57
   **   ~~~   ** The solution for one or more of the Air Loop HVAC systems did not appear to converge
   **   ~~~   ** Air System Named = CENTRAL SYSTEM did not converge for mass flow rate
   **   ~~~   ** Check values should be zero. Most Recent values listed first.
   **   ~~~   ** Demand-to-Supply interface mass flow rate check value iteration history trace: 6.624930E-002,6.624930E-002,6.624930E-002,6.624930E-002,6.624930E-002,6.624930E-002,6.624930E-002,6.624930E-002,6.624930E-002,6.624930E-002,
   **   ~~~   ** Supply-to-demand interface deck 1 mass flow rate check value iteration history trace: 6.624930E-002,6.624930E-002,6.624930E-002,6.624930E-002,6.624930E-002,6.624930E-002,6.624930E-002,6.624930E-002,6.624930E-002,6.624930E-002,
   **   ~~~   ** Air System Named = CENTRAL SYSTEM did not converge for energy
   **   ~~~   ** Check values should be zero. Most Recent values listed first.
   **   ~~~   ** Demand-to-Supply interface energy check value iteration history trace: 1549.690531,1549.690531,1549.690531,1549.690531,1549.690531,1549.690532,1549.690532,1549.690532,1549.690532,1549.690532,
   **   ~~~   ** Supply-to-demand interface deck 1 energy check value iteration history trace: 628.060804,628.060804,628.060804,628.060804,628.060804,628.060804,628.060804,628.060804,628.060804,628.060804,
   ************* Simulation Error Summary *************
   ** Warning ** The following Report Variables were requested but not generated -- check.rdd file
   **   ~~~   ** Either the IDF did not contain these elements, the variable name is misspelled,
   **   ~~~   ** or the requested variable is an advanced output which requires Output : Diagnostics, DisplayAdvancedReportVariables;
   ************* Key=*, VarName=BASEBOARD TOTAL HEATING ENERGY, Frequency=
   ************* Key=*, VarName=WATER HEATER NATURALGAS ENERGY, Frequency=
   ************* Key=*, VarName=COOLING COIL TOTAL HEATING ENERGY, Frequency=
   ************* There are 34 unused schedules in input.
   ************* There are 388 unused week schedules in input.
   ************* There are 396 unused day schedules in input.
   ************* Use Output:Diagnostics,DisplayUnusedSchedules; to see them.
   *************
   ************* ===== Recurring Error Summary =====
   ************* The following recurring error messages occurred.
   *************
   *************  ** Warning ** "TOTAL HOT WATER LOAD" - Target water temperature should be less than or equal to the hot water temperature error continues...
   *************  **   ~~~   **   This error occurred 136885 total times;
   *************  **   ~~~   **   during Warmup 0 times;
   *************  **   ~~~   **   during Sizing 0 times.
   *************  **   ~~~   **   Max=8.54901  Min=5.378319E-004
   *************
   *************  ** Warning ** SimHVAC: Exceeding Maximum iterations for all HVAC loops, during ANNUAL continues
   *************  **   ~~~   **   This error occurred 2 total times;
   *************  **   ~~~   **   during Warmup 0 times;
   *************  **   ~~~   **   during Sizing 0 times.
   *************
   *************
   ************* ===== Final Error Summary =====
   ************* The following error categories occurred.  Consider correcting or noting.
   ************* Nominally Unused Constructions
   ************* ..The nominally unused constructions warning is provided to alert you to potential conditions that can cause
   ************* ..extra time during simulation. Each construction is calculated by the algorithm indicated in the HeatBalanceAlgorithm
   ************* ..object. You may remove the constructions indicated (when you use the DisplayExtraWarnings option).
   *************
   ************* EnergyPlus Warmup Error Summary. During Warmup: 1 Warning; 0 Severe Errors.
   ************* EnergyPlus Sizing Error Summary. During Sizing: 4 Warning; 0 Severe Errors.
   ************* EnergyPlus Completed Successfully-- 136918 Warning; 0 Severe Errors; Elapsed Time=00hr 05min 59.09sec
