Program Version,EnergyPlus, Version 22.2.0-c249759bad, YMD=2023.09.01 14:56,
   ************* Beginning Zone Sizing Calculations
   ** Warning ** ProcessScheduleInput: Schedule:Constant="ALWAYS ON DISCRETE", Schedule Type Limits Name="ONOFF" not found -- will not be validated
   ** Warning ** Foundation:Kiva="KIVA FOUNDATION", no Interior Horizontal Insulation Material Name defined
   **   ~~~   ** Interior Horizontal Insulation Depth will not be used.
   ** Warning ** CheckUsedConstructions: There are 15 nominally unused constructions in input.
   **   ~~~   ** Each Unused construction is shown.
   ************* Construction=INTERIOR FLOOR
   ************* Construction=INTERIOR WINDOW
   ************* Construction=EXTERIOR DOOR
   ************* Construction=INTERIOR DOOR
   ************* Construction=GABLE CONSTRUCTION
   ************* Construction=CRAWL_FLOOR
   ************* Construction=INSULATED PIPE
   ************* Construction=PLAIN PIPE
   ************* Construction=TDD PIPE
   ************* Construction=TDD DOME
   ************* Construction=TDD DIFFUSER
   ************* Construction=CRAWL WALL
   ************* Construction=CEILING-FLOOR-LAYER
   ************* Construction=SLAB CONSTRUCTION W FULL R10 INSULATION
   ************* Construction=SLAB CONSTRUCTION W FULL R5 INSULATION
   ** Warning ** GetDXCoils: Coil:Heating:DX:SingleSpeed="DX_HEATING_COIL" curve values
   **   ~~~   ** ... Defrost Energy Input Ratio Function of Temperature Curve Name = DEFROSTEIR output is not equal to 1.0 (+ or - 10%) at rated conditions.
   **   ~~~   ** ... Curve output at rated conditions = 0.152
   ************* Beginning System Sizing Calculations
   ************* Beginning Plant Sizing Calculations
   ** Warning ** SizeDXCoil Coil:Cooling:DX:SingleSpeed DX_COOLING_COIL
   **   ~~~   ** ...Gross Rated Total Cooling Capacity [W] will be limited by the maximum rated volume flow per rated total capacity ratio.
   **   ~~~   ** ...DX coil volume flow rate ( m3/s ) = 0.389879
   **   ~~~   ** ...Requested capacity ( W ) = 5945.790
   **   ~~~   ** ...Requested flow/capacity ratio ( m3/s/W ) = 6.557E-005
   **   ~~~   ** ...Maximum flow/capacity ratio ( m3/s/W ) = 6.041E-005
   **   ~~~   ** ...Adjusted capacity ( W ) = 6453.886
   ** Warning ** Coil:WaterHeating:AirToWaterHeatPump:Wrapped "HEAT PUMP WATER HEATER EVAPORATOR": Rated air volume flow rate per watt of rated total water heating capacity is out of range
   **   ~~~   ** Min Rated Vol Flow Per Watt=[4.027E-005], Rated Vol Flow Per Watt=[1.386E-004], Max Rated Vol Flow Per Watt=[8.056E-005]. See Input-Output Reference Manual for valid range.
   ** Warning ** Water heater = WATER HEATER TANK:  Recovery Efficiency and Energy Factor could not be calculated during the test for standard ratings
   **   ~~~   ** Setpoint was never recovered and/or heater never turned on
   ** Warning ** Check input. Pump nominal power or motor efficiency is set to 0, for pump=MAINS PRESSURE
   ** Warning ** Output:Meter: invalid Key Name="ELECTRIC_RANGE:INTERIOREQUIPMENT:ELECTRICITY" - not found.
   ** Warning ** Output:Meter: invalid Key Name="ELECTRIC_DRYER:INTERIOREQUIPMENT:ELECTRICITY" - not found.
   ** Warning ** Output:Meter: invalid Key Name="HEATRECOVERY:ELECTRICITY" - not found.
   ** Warning ** Output:Meter: invalid Key Name="HEATING:NATURALGAS" - not found.
   ** Warning ** Output:Meter: invalid Key Name="WATERSYSTEMS:NATURALGAS" - not found.
   ** Warning ** Output:Meter: invalid Key Name="PROPANE:FACILITY" - not found.
   ** Warning ** Output:Meter: invalid Key Name="HEATING:PROPANE" - not found.
   ************* Testing Individual Branch Integrity
   ************* All Branches passed integrity testing
   ************* Testing Individual Supply Air Path Integrity
   ************* All Supply Air Paths passed integrity testing
   ************* Testing Individual Return Air Path Integrity
   ************* All Return Air Paths passed integrity testing
   ************* No node connection errors were found.
   ************* Beginning Simulation
   ** Warning ** AirflowNetwork::Solver::validate_distribution: Heat pump water heater is simulated along with an AirflowNetwork but is not included in the AirflowNetwork.
   ** Warning ** CalcEquipmentFlowRates: "TOTAL HOT WATER LOAD" - Target water temperature is greater than the hot water temperature by (1.65 C)
   **   ~~~   **  Environment=EXTREME_WINTER, at Simulation time=12/15 06:00 - 06:15
   **   ~~~   ** ...target water temperature     = 53.33 C
   **   ~~~   ** ...hot water temperature        = 51.69 C
   **   ~~~   ** ...Target water temperature should be less than or equal to the hot water temperature. Verify temperature setpoints and schedules.
   ** Warning ** SimHVAC: Maximum iterations (20) exceeded for all HVAC loops, at ANNUAL, 03/24 16:00 - 16:15
   **   ~~~   ** The solution for one or more of the Air Loop HVAC systems did not appear to converge
   **   ~~~   ** Air System Named = CENTRAL SYSTEM did not converge for mass flow rate
   **   ~~~   ** Check values should be zero. Most Recent values listed first.
   **   ~~~   ** Demand-to-Supply interface mass flow rate check value iteration history trace: 6.808214E-002,6.808214E-002,6.808214E-002,6.808214E-002,6.808214E-002,6.808214E-002,6.808214E-002,6.808214E-002,6.808214E-002,6.808214E-002,
   **   ~~~   ** Supply-to-demand interface deck 1 mass flow rate check value iteration history trace: 6.808214E-002,6.808214E-002,6.808214E-002,6.808214E-002,6.808214E-002,6.808214E-002,6.808214E-002,6.808214E-002,6.808214E-002,6.808214E-002,
   **   ~~~   ** Air System Named = CENTRAL SYSTEM did not converge for energy
   **   ~~~   ** Check values should be zero. Most Recent values listed first.
   **   ~~~   ** Demand-to-Supply interface energy check value iteration history trace: 1348.338302,1348.338302,1348.338302,1348.338302,1348.338302,1348.338302,1348.338301,1348.338301,1348.338301,1348.338301,
   **   ~~~   ** Supply-to-demand interface deck 1 energy check value iteration history trace: 2353.208336,2353.208336,2353.208335,2353.208335,2353.208335,2353.208335,2353.208335,2353.208335,2353.208335,2353.208335,
   ** Warning ** SimHVAC: Maximum iterations (20) exceeded for all HVAC loops, at ANNUAL, 04/15 11:49 - 11:51
   **   ~~~   ** The solution for one or more of the Air Loop HVAC systems did not appear to converge
   **   ~~~   ** Air System Named = CENTRAL SYSTEM did not converge for mass flow rate
   **   ~~~   ** Check values should be zero. Most Recent values listed first.
   **   ~~~   ** Demand-to-Supply interface mass flow rate check value iteration history trace: 5.944387E-002,5.944387E-002,5.944387E-002,5.944387E-002,5.944387E-002,5.944387E-002,5.944387E-002,5.944387E-002,5.944387E-002,5.944387E-002,
   **   ~~~   ** Supply-to-demand interface deck 1 mass flow rate check value iteration history trace: 5.944387E-002,5.944387E-002,5.944387E-002,5.944387E-002,5.944387E-002,5.944387E-002,5.944387E-002,5.944387E-002,5.944387E-002,5.944387E-002,
   **   ~~~   ** Air System Named = CENTRAL SYSTEM did not converge for energy
   **   ~~~   ** Check values should be zero. Most Recent values listed first.
   **   ~~~   ** Demand-to-Supply interface energy check value iteration history trace: 1173.510990,1173.510990,1173.510990,1173.510990,1173.510990,1173.510990,1173.510990,1173.510990,1173.510990,1173.510990,
   **   ~~~   ** Supply-to-demand interface deck 1 energy check value iteration history trace: 2032.568196,2032.568196,2032.568196,2032.568196,2032.568196,2032.568196,2032.568195,2032.568195,2032.568195,2032.568195,
   ** Warning ** SimHVAC: Maximum iterations (20) exceeded for all HVAC loops, at ANNUAL, 05/03 20:30 - 20:45
   **   ~~~   ** The solution for one or more of the Air Loop HVAC systems did not appear to converge
   **   ~~~   ** Air System Named = CENTRAL SYSTEM did not converge for mass flow rate
   **   ~~~   ** Check values should be zero. Most Recent values listed first.
   **   ~~~   ** Demand-to-Supply interface mass flow rate check value iteration history trace: 0.106173,0.106173,0.106173,0.106173,0.106173,0.106173,0.106173,0.106173,0.106173,0.106173,
   **   ~~~   ** Supply-to-demand interface deck 1 mass flow rate check value iteration history trace: 0.106173,0.106173,0.106173,0.106173,0.106173,0.106173,0.106173,0.106173,0.106173,0.106173,
   **   ~~~   ** Air System Named = CENTRAL SYSTEM did not converge for energy
   **   ~~~   ** Check values should be zero. Most Recent values listed first.
   **   ~~~   ** Demand-to-Supply interface energy check value iteration history trace: 2087.576912,2087.576912,2087.576912,2087.576912,2087.576912,2087.576911,2087.576911,2087.576911,2087.576911,2087.576911,
   **   ~~~   ** Supply-to-demand interface deck 1 energy check value iteration history trace: 3257.533851,3257.533851,3257.533851,3257.533850,3257.533850,3257.533850,3257.533850,3257.533850,3257.533849,3257.533849,
   ** Warning ** SimHVAC: Maximum iterations (20) exceeded for all HVAC loops, at ANNUAL, 05/10 08:00 - 08:15
   **   ~~~   ** The solution for one or more of the Air Loop HVAC systems did not appear to converge
   **   ~~~   ** Air System Named = CENTRAL SYSTEM did not converge for mass flow rate
   **   ~~~   ** Check values should be zero. Most Recent values listed first.
   **   ~~~   ** Demand-to-Supply interface mass flow rate check value iteration history trace: 5.476915E-002,5.476915E-002,5.476915E-002,5.476915E-002,5.476915E-002,5.476915E-002,5.476915E-002,5.476915E-002,5.476915E-002,5.476915E-002,
   **   ~~~   ** Supply-to-demand interface deck 1 mass flow rate check value iteration history trace: 5.476915E-002,5.476915E-002,5.476915E-002,5.476915E-002,5.476915E-002,5.476915E-002,5.476915E-002,5.476915E-002,5.476915E-002,5.476915E-002,
   **   ~~~   ** Air System Named = CENTRAL SYSTEM did not converge for energy
   **   ~~~   ** Check values should be zero. Most Recent values listed first.
   **   ~~~   ** Demand-to-Supply interface energy check value iteration history trace: 1074.558628,1074.558628,1074.558628,1074.558628,1074.558628,1074.558628,1074.558627,1074.558627,1074.558627,1074.558627,
   **   ~~~   ** Supply-to-demand interface deck 1 energy check value iteration history trace: 1909.125294,1909.125293,1909.125293,1909.125293,1909.125293,1909.125293,1909.125293,1909.125293,1909.125293,1909.125293,
   ** Warning ** SimHVAC: Maximum iterations (20) exceeded for all HVAC loops, at ANNUAL, 05/14 09:15 - 09:30
   **   ~~~   ** The solution for one or more of the Air Loop HVAC systems did not appear to converge
   **   ~~~   ** Air System Named = CENTRAL SYSTEM did not converge for mass flow rate
   **   ~~~   ** Check values should be zero. Most Recent values listed first.
   **   ~~~   ** Demand-to-Supply interface mass flow rate check value iteration history trace: 7.118337E-002,7.118337E-002,7.118337E-002,7.118337E-002,7.118337E-002,7.118337E-002,7.118337E-002,7.118337E-002,7.118337E-002,7.118337E-002,
   **   ~~~   ** Supply-to-demand interface deck 1 mass flow rate check value iteration history trace: 7.118337E-002,7.118337E-002,7.118337E-002,7.118337E-002,7.118337E-002,7.118337E-002,7.118337E-002,7.118337E-002,7.118337E-002,7.118337E-002,
   **   ~~~   ** Air System Named = CENTRAL SYSTEM did not converge for energy
   **   ~~~   ** Check values should be zero. Most Recent values listed first.
   **   ~~~   ** Demand-to-Supply interface energy check value iteration history trace: 1408.121463,1408.121463,1408.121463,1408.121463,1408.121462,1408.121462,1408.121462,1408.121462,1408.121462,1408.121462,
   **   ~~~   ** Supply-to-demand interface deck 1 energy check value iteration history trace: 2504.542712,2504.542712,2504.542712,2504.542712,2504.542712,2504.542712,2504.542712,2504.542712,2504.542711,2504.542711,
   ** Warning ** SimHVAC: Maximum iterations (20) exceeded for all HVAC loops, at ANNUAL, 06/18 10:30 - 10:45
   **   ~~~   ** The solution for one or more of the Air Loop HVAC systems did not appear to converge
   **   ~~~   ** Air System Named = CENTRAL SYSTEM did not converge for mass flow rate
   **   ~~~   ** Check values should be zero. Most Recent values listed first.
   **   ~~~   ** Demand-to-Supply interface mass flow rate check value iteration history trace: 7.786134E-002,7.786134E-002,7.786134E-002,7.786134E-002,7.786134E-002,7.786134E-002,7.786134E-002,7.786134E-002,7.786134E-002,7.786134E-002,
   **   ~~~   ** Supply-to-demand interface deck 1 mass flow rate check value iteration history trace: 7.786134E-002,7.786134E-002,7.786134E-002,7.786134E-002,7.786134E-002,7.786134E-002,7.786134E-002,7.786134E-002,7.786134E-002,7.786134E-002,
   **   ~~~   ** Air System Named = CENTRAL SYSTEM did not converge for energy
   **   ~~~   ** Check values should be zero. Most Recent values listed first.
   **   ~~~   ** Demand-to-Supply interface energy check value iteration history trace: 1859.478507,1859.478507,1859.478507,1859.478507,1859.478508,1859.478508,1859.478508,1859.478508,1859.478508,1859.478509,
   **   ~~~   ** Supply-to-demand interface deck 1 energy check value iteration history trace: 901.910083,901.910083,901.910083,901.910083,901.910083,901.910083,901.910083,901.910083,901.910083,901.910084,
   ** Warning ** SimHVAC: Maximum iterations (20) exceeded for all HVAC loops, at ANNUAL, 10/16 13:15 - 13:30
   **   ~~~   ** The solution for one or more of the Air Loop HVAC systems did not appear to converge
   **   ~~~   ** Air System Named = CENTRAL SYSTEM did not converge for mass flow rate
   **   ~~~   ** Check values should be zero. Most Recent values listed first.
   **   ~~~   ** Demand-to-Supply interface mass flow rate check value iteration history trace: 8.121695E-002,8.121695E-002,8.121695E-002,8.121695E-002,8.121695E-002,8.121695E-002,8.121695E-002,8.121695E-002,8.121695E-002,8.121695E-002,
   **   ~~~   ** Supply-to-demand interface deck 1 mass flow rate check value iteration history trace: 8.121695E-002,8.121695E-002,8.121695E-002,8.121695E-002,8.121695E-002,8.121695E-002,8.121695E-002,8.121695E-002,8.121695E-002,8.121695E-002,
   **   ~~~   ** Air System Named = CENTRAL SYSTEM did not converge for energy
   **   ~~~   ** Check values should be zero. Most Recent values listed first.
   **   ~~~   ** Demand-to-Supply interface energy check value iteration history trace: 1622.632288,1622.632287,1622.632287,1622.632287,1622.632287,1622.632287,1622.632287,1622.632287,1622.632287,1622.632287,
   **   ~~~   ** Supply-to-demand interface deck 1 energy check value iteration history trace: 2729.312565,2729.312565,2729.312565,2729.312565,2729.312565,2729.312565,2729.312565,2729.312564,2729.312564,2729.312564,
   ** Warning ** SimHVAC: Maximum iterations (20) exceeded for all HVAC loops, at ANNUAL, 10/26 19:00 - 19:05
   **   ~~~   ** The solution for one or more of the Air Loop HVAC systems did not appear to converge
   **   ~~~   ** Air System Named = CENTRAL SYSTEM did not converge for mass flow rate
   **   ~~~   ** Check values should be zero. Most Recent values listed first.
   **   ~~~   ** Demand-to-Supply interface mass flow rate check value iteration history trace: 9.129520E-002,9.129520E-002,9.129520E-002,9.129520E-002,9.129520E-002,9.129520E-002,9.129520E-002,9.129520E-002,9.129520E-002,9.129520E-002,
   **   ~~~   ** Supply-to-demand interface deck 1 mass flow rate check value iteration history trace: 9.129520E-002,9.129520E-002,9.129520E-002,9.129520E-002,9.129520E-002,9.129520E-002,9.129520E-002,9.129520E-002,9.129520E-002,9.129520E-002,
   **   ~~~   ** Air System Named = CENTRAL SYSTEM did not converge for energy
   **   ~~~   ** Check values should be zero. Most Recent values listed first.
   **   ~~~   ** Demand-to-Supply interface energy check value iteration history trace: 1815.063107,1815.063107,1815.063107,1815.063107,1815.063107,1815.063107,1815.063107,1815.063107,1815.063107,1815.063107,
   **   ~~~   ** Supply-to-demand interface deck 1 energy check value iteration history trace: 3053.483922,3053.483922,3053.483922,3053.483922,3053.483922,3053.483921,3053.483921,3053.483921,3053.483921,3053.483921,
   ** Warning ** SimHVAC: Maximum iterations (20) exceeded for all HVAC loops, at ANNUAL, 11/06 14:00 - 14:15
   **   ~~~   ** The solution for one or more of the Air Loop HVAC systems did not appear to converge
   **   ~~~   ** Air System Named = CENTRAL SYSTEM did not converge for mass flow rate
   **   ~~~   ** Check values should be zero. Most Recent values listed first.
   **   ~~~   ** Demand-to-Supply interface mass flow rate check value iteration history trace: 2.762470E-002,2.762470E-002,2.762470E-002,2.762470E-002,2.762470E-002,2.762470E-002,2.762470E-002,2.762470E-002,2.762470E-002,2.762470E-002,
   **   ~~~   ** Supply-to-demand interface deck 1 mass flow rate check value iteration history trace: 2.762470E-002,2.762470E-002,2.762470E-002,2.762470E-002,2.762470E-002,2.762470E-002,2.762470E-002,2.762470E-002,2.762470E-002,2.762470E-002,
   **   ~~~   ** Air System Named = CENTRAL SYSTEM did not converge for energy
   **   ~~~   ** Check values should be zero. Most Recent values listed first.
   **   ~~~   ** Demand-to-Supply interface energy check value iteration history trace: 547.308719,547.308719,547.308719,547.308719,547.308718,547.308718,547.308718,547.308718,547.308718,547.308718,
   **   ~~~   ** Supply-to-demand interface deck 1 energy check value iteration history trace: 861.963748,861.963748,861.963748,861.963748,861.963748,861.963748,861.963748,861.963748,861.963748,861.963748,
   ** Warning ** SimHVAC: Maximum iterations (20) exceeded for all HVAC loops, at ANNUAL, 11/22 20:30 - 20:45
   **   ~~~   ** The solution for one or more of the Air Loop HVAC systems did not appear to converge
   **   ~~~   ** Air System Named = CENTRAL SYSTEM did not converge for mass flow rate
   **   ~~~   ** Check values should be zero. Most Recent values listed first.
   **   ~~~   ** Demand-to-Supply interface mass flow rate check value iteration history trace: 5.472014E-002,5.472014E-002,5.472014E-002,5.472014E-002,5.472014E-002,5.472014E-002,5.472014E-002,5.472014E-002,5.472014E-002,5.472014E-002,
   **   ~~~   ** Supply-to-demand interface deck 1 mass flow rate check value iteration history trace: 5.472014E-002,5.472014E-002,5.472014E-002,5.472014E-002,5.472014E-002,5.472014E-002,5.472014E-002,5.472014E-002,5.472014E-002,5.472014E-002,
   **   ~~~   ** Air System Named = CENTRAL SYSTEM did not converge for energy
   **   ~~~   ** Check values should be zero. Most Recent values listed first.
   **   ~~~   ** Demand-to-Supply interface energy check value iteration history trace: 1057.933822,1057.933822,1057.933822,1057.933822,1057.933822,1057.933822,1057.933822,1057.933822,1057.933822,1057.933822,
   **   ~~~   ** Supply-to-demand interface deck 1 energy check value iteration history trace: 1953.275988,1953.275988,1953.275988,1953.275988,1953.275988,1953.275988,1953.275988,1953.275988,1953.275988,1953.275988,
   ************* Simulation Error Summary *************
   ** Warning ** The following Report Variables were requested but not generated -- check.rdd file
   **   ~~~   ** Either the IDF did not contain these elements, the variable name is misspelled,
   **   ~~~   ** or the requested variable is an advanced output which requires Output : Diagnostics, DisplayAdvancedReportVariables;
   ************* Key=*, VarName=BASEBOARD TOTAL HEATING ENERGY, Frequency=
   ************* Key=*, VarName=WATER HEATER NATURALGAS ENERGY, Frequency=
   ************* Key=*, VarName=COOLING COIL TOTAL HEATING ENERGY, Frequency=
   ************* There are 34 unused schedules in input.
   ************* There are 388 unused week schedules in input.
   ************* There are 396 unused day schedules in input.
   ************* Use Output:Diagnostics,DisplayUnusedSchedules; to see them.
   *************
   ************* ===== Recurring Error Summary =====
   ************* The following recurring error messages occurred.
   *************
   *************  ** Warning ** "TOTAL HOT WATER LOAD" - Target water temperature should be less than or equal to the hot water temperature error continues...
   *************  **   ~~~   **   This error occurred 84283 total times;
   *************  **   ~~~   **   during Warmup 0 times;
   *************  **   ~~~   **   during Sizing 0 times.
   *************  **   ~~~   **   Max=11.240062  Min=1.841897E-005
   *************
   *************
   ************* ===== Final Error Summary =====
   ************* The following error categories occurred.  Consider correcting or noting.
   ************* Nominally Unused Constructions
   ************* ..The nominally unused constructions warning is provided to alert you to potential conditions that can cause
   ************* ..extra time during simulation. Each construction is calculated by the algorithm indicated in the HeatBalanceAlgorithm
   ************* ..object. You may remove the constructions indicated (when you use the DisplayExtraWarnings option).
   *************
   ************* EnergyPlus Warmup Error Summary. During Warmup: 1 Warning; 0 Severe Errors.
   ************* EnergyPlus Sizing Error Summary. During Sizing: 4 Warning; 0 Severe Errors.
   ************* EnergyPlus Completed Successfully-- 84311 Warning; 0 Severe Errors; Elapsed Time=00hr 05min  2.44sec
