Program Version,EnergyPlus, Version 22.2.0-c249759bad, YMD=2023.09.01 20:03,
   ************* Beginning Zone Sizing Calculations
   ** Warning ** ProcessScheduleInput: Schedule:Constant="ALWAYS ON DISCRETE", Schedule Type Limits Name="ONOFF" not found -- will not be validated
   ** Warning ** Foundation:Kiva="KIVA FOUNDATION", no Interior Horizontal Insulation Material Name defined
   **   ~~~   ** Interior Horizontal Insulation Depth will not be used.
   ** Warning ** CheckUsedConstructions: There are 15 nominally unused constructions in input.
   **   ~~~   ** Each Unused construction is shown.
   ************* Construction=INTERIOR FLOOR
   ************* Construction=INTERIOR WINDOW
   ************* Construction=EXTERIOR DOOR
   ************* Construction=INTERIOR DOOR
   ************* Construction=GABLE CONSTRUCTION
   ************* Construction=CRAWL_FLOOR
   ************* Construction=INSULATED PIPE
   ************* Construction=PLAIN PIPE
   ************* Construction=TDD PIPE
   ************* Construction=TDD DOME
   ************* Construction=TDD DIFFUSER
   ************* Construction=CRAWL WALL
   ************* Construction=CEILING-FLOOR-LAYER
   ************* Construction=SLAB CONSTRUCTION W FULL R10 INSULATION
   ************* Construction=SLAB CONSTRUCTION W FULL R5 INSULATION
   ** Warning ** GetDXCoils: Coil:Heating:DX:SingleSpeed="DX_HEATING_COIL" curve values
   **   ~~~   ** ... Defrost Energy Input Ratio Function of Temperature Curve Name = DEFROSTEIR output is not equal to 1.0 (+ or - 10%) at rated conditions.
   **   ~~~   ** ... Curve output at rated conditions = 0.152
   ************* Beginning System Sizing Calculations
   ************* Beginning Plant Sizing Calculations
   ** Warning ** SizeDXCoil Coil:Cooling:DX:SingleSpeed DX_COOLING_COIL
   **   ~~~   ** ...Gross Rated Total Cooling Capacity [W] will be limited by the maximum rated volume flow per rated total capacity ratio.
   **   ~~~   ** ...DX coil volume flow rate ( m3/s ) = 0.429654
   **   ~~~   ** ...Requested capacity ( W ) = 6922.169
   **   ~~~   ** ...Requested flow/capacity ratio ( m3/s/W ) = 6.206E-005
   **   ~~~   ** ...Maximum flow/capacity ratio ( m3/s/W ) = 6.041E-005
   **   ~~~   ** ...Adjusted capacity ( W ) = 7112.306
   ** Warning ** Coil:WaterHeating:AirToWaterHeatPump:Wrapped "HEAT PUMP WATER HEATER EVAPORATOR": Rated air volume flow rate per watt of rated total water heating capacity is out of range
   **   ~~~   ** Min Rated Vol Flow Per Watt=[4.027E-005], Rated Vol Flow Per Watt=[1.510E-004], Max Rated Vol Flow Per Watt=[8.056E-005]. See Input-Output Reference Manual for valid range.
   ************* SizeFan: : Potential issue with equipment sizing for Fan:OnOff HEAT PUMP WATER HEATER FAN
   **   ~~~   ** User-Specified Maximum Flow Rate [m3/s] = 0.22653
   **   ~~~   ** differs from Design Size Maximum Flow Rate [m3/s] = 7.55250E-002
   **   ~~~   ** This may, or may not, indicate mismatched component sizes.
   **   ~~~   ** Verify that the value entered is intended and is consistent with other components.
   ** Warning ** Water heater = WATER HEATER TANK:  Recovery Efficiency and Energy Factor could not be calculated during the test for standard ratings
   **   ~~~   ** Setpoint was never recovered and/or heater never turned on
   ** Warning ** Check input. Pump nominal power or motor efficiency is set to 0, for pump=MAINS PRESSURE
   ** Warning ** Output:Meter: invalid Key Name="ELECTRIC_RANGE:INTERIOREQUIPMENT:ELECTRICITY" - not found.
   ** Warning ** Output:Meter: invalid Key Name="ELECTRIC_DRYER:INTERIOREQUIPMENT:ELECTRICITY" - not found.
   ** Warning ** Output:Meter: invalid Key Name="HEATRECOVERY:ELECTRICITY" - not found.
   ** Warning ** Output:Meter: invalid Key Name="HEATING:NATURALGAS" - not found.
   ** Warning ** Output:Meter: invalid Key Name="WATERSYSTEMS:NATURALGAS" - not found.
   ** Warning ** Output:Meter: invalid Key Name="PROPANE:FACILITY" - not found.
   ** Warning ** Output:Meter: invalid Key Name="HEATING:PROPANE" - not found.
   ************* Testing Individual Branch Integrity
   ************* All Branches passed integrity testing
   ************* Testing Individual Supply Air Path Integrity
   ************* All Supply Air Paths passed integrity testing
   ************* Testing Individual Return Air Path Integrity
   ************* All Return Air Paths passed integrity testing
   ************* No node connection errors were found.
   ************* Beginning Simulation
   ** Warning ** AirflowNetwork::Solver::validate_distribution: Heat pump water heater is simulated along with an AirflowNetwork but is not included in the AirflowNetwork.
   ** Warning ** CalcEquipmentFlowRates: "TOTAL HOT WATER LOAD" - Target water temperature is greater than the hot water temperature by (3.49 C)
   **   ~~~   **  Environment=EXTREME_WINTER, at Simulation time=12/15 07:00 - 07:15
   **   ~~~   ** ...target water temperature     = 53.33 C
   **   ~~~   ** ...hot water temperature        = 49.85 C
   **   ~~~   ** ...Target water temperature should be less than or equal to the hot water temperature. Verify temperature setpoints and schedules.
   ** Severe  ** CheckWarmupConvergence: Loads Initialization, Zone="LIVING" did not converge after 25 warmup days.
   **   ~~~   ** See Warmup Convergence Information in .eio file for details.
   **   ~~~   ** ...Environment(SizingPeriod)="EXTREME_SUMMER"
   **   ~~~   ** ..Max Temp Comparison = 3.53E-002 vs Temperature Convergence Tolerance=5.00E-002 - Pass Convergence
   **   ~~~   ** ..Min Temp Comparison = 5.06E-004 vs Temperature Convergence Tolerance=5.00E-002 - Pass Convergence
   **   ~~~   ** ..Max Heat Load Comparison = 2.2852E-003 vs Loads Convergence Tolerance=5.00E-002 - Pass Convergence
   **   ~~~   ** ..Max Cool Load Comparison = 7.7931E-002 vs Loads Convergence Tolerance=5.00E-002 - Fail Convergence
   ** Warning ** SimHVAC: Maximum iterations (20) exceeded for all HVAC loops, at ANNUAL, 02/10 11:15 - 11:30
   **   ~~~   ** The solution for one or more of the Air Loop HVAC systems did not appear to converge
   **   ~~~   ** Air System Named = CENTRAL SYSTEM did not converge for mass flow rate
   **   ~~~   ** Check values should be zero. Most Recent values listed first.
   **   ~~~   ** Demand-to-Supply interface mass flow rate check value iteration history trace: 5.050416E-002,5.050416E-002,5.050416E-002,5.050416E-002,5.050416E-002,5.050416E-002,5.050416E-002,5.050416E-002,5.050416E-002,5.050416E-002,
   **   ~~~   ** Supply-to-demand interface deck 1 mass flow rate check value iteration history trace: 5.050416E-002,5.050416E-002,5.050416E-002,5.050416E-002,5.050416E-002,5.050416E-002,5.050416E-002,5.050416E-002,5.050416E-002,5.050416E-002,
   **   ~~~   ** Air System Named = CENTRAL SYSTEM did not converge for energy
   **   ~~~   ** Check values should be zero. Most Recent values listed first.
   **   ~~~   ** Demand-to-Supply interface energy check value iteration history trace: 985.831924,985.831924,985.831924,985.831924,985.831924,985.831924,985.831924,985.831923,985.831923,985.831923,
   **   ~~~   ** Supply-to-demand interface deck 1 energy check value iteration history trace: 1852.044646,1852.044645,1852.044645,1852.044645,1852.044645,1852.044644,1852.044644,1852.044644,1852.044644,1852.044643,
   **   ~~~   ** Node named ZONE INLET NODE shows oscillating temperatures across iterations with a repeated value of 36.494356
   **   ~~~   ** Node named ZONE INLET NODE temperature [C] iteration history trace (most recent first): 36.494356,36.494356,36.494355,36.494355,36.494355,36.494355,36.494355,36.494354,36.494354,36.494354,
   ** Warning ** SimHVAC: Maximum iterations (20) exceeded for all HVAC loops, at ANNUAL, 02/15 17:30 - 17:33
   **   ~~~   ** The solution for one or more of the Air Loop HVAC systems did not appear to converge
   **   ~~~   ** Air System Named = CENTRAL SYSTEM did not converge for mass flow rate
   **   ~~~   ** Check values should be zero. Most Recent values listed first.
   **   ~~~   ** Demand-to-Supply interface mass flow rate check value iteration history trace: 8.953433E-002,8.953433E-002,8.953433E-002,8.953433E-002,8.953433E-002,8.953433E-002,8.953433E-002,8.953433E-002,8.953433E-002,8.953433E-002,
   **   ~~~   ** Supply-to-demand interface deck 1 mass flow rate check value iteration history trace: 8.953433E-002,8.953433E-002,8.953433E-002,8.953433E-002,8.953433E-002,8.953433E-002,8.953433E-002,8.953433E-002,8.953433E-002,8.953433E-002,
   **   ~~~   ** Air System Named = CENTRAL SYSTEM did not converge for energy
   **   ~~~   ** Check values should be zero. Most Recent values listed first.
   **   ~~~   ** Demand-to-Supply interface energy check value iteration history trace: 1770.710777,1770.710777,1770.710777,1770.710777,1770.710777,1770.710777,1770.710777,1770.710777,1770.710777,1770.710776,
   **   ~~~   ** Supply-to-demand interface deck 1 energy check value iteration history trace: 2684.788857,2684.788857,2684.788857,2684.788857,2684.788857,2684.788856,2684.788856,2684.788856,2684.788856,2684.788856,
   ** Warning ** SimHVAC: Maximum iterations (20) exceeded for all HVAC loops, at ANNUAL, 03/01 11:00 - 11:15
   **   ~~~   ** The solution for one or more of the Air Loop HVAC systems did not appear to converge
   **   ~~~   ** Air System Named = CENTRAL SYSTEM did not converge for mass flow rate
   **   ~~~   ** Check values should be zero. Most Recent values listed first.
   **   ~~~   ** Demand-to-Supply interface mass flow rate check value iteration history trace: 9.791667E-002,9.791667E-002,9.791667E-002,9.791667E-002,9.791667E-002,9.791667E-002,9.791667E-002,9.791667E-002,9.791667E-002,9.791667E-002,
   **   ~~~   ** Supply-to-demand interface deck 1 mass flow rate check value iteration history trace: 9.791667E-002,9.791667E-002,9.791667E-002,9.791667E-002,9.791667E-002,9.791667E-002,9.791667E-002,9.791667E-002,9.791667E-002,9.791667E-002,
   **   ~~~   ** Air System Named = CENTRAL SYSTEM did not converge for energy
   **   ~~~   ** Check values should be zero. Most Recent values listed first.
   **   ~~~   ** Demand-to-Supply interface energy check value iteration history trace: 1940.328809,1940.328809,1940.328809,1940.328809,1940.328808,1940.328808,1940.328808,1940.328808,1940.328808,1940.328808,
   **   ~~~   ** Supply-to-demand interface deck 1 energy check value iteration history trace: 2977.529059,2977.529059,2977.529059,2977.529059,2977.529058,2977.529058,2977.529058,2977.529058,2977.529058,2977.529057,
   ** Warning ** SimHVAC: Maximum iterations (20) exceeded for all HVAC loops, at ANNUAL, 03/02 10:45 - 11:00
   **   ~~~   ** The solution for one or more of the Air Loop HVAC systems did not appear to converge
   **   ~~~   ** Air System Named = CENTRAL SYSTEM did not converge for mass flow rate
   **   ~~~   ** Check values should be zero. Most Recent values listed first.
   **   ~~~   ** Demand-to-Supply interface mass flow rate check value iteration history trace: 7.942565E-002,7.942565E-002,7.942565E-002,7.942565E-002,7.942565E-002,7.942565E-002,7.942565E-002,7.942565E-002,7.942565E-002,7.942565E-002,
   **   ~~~   ** Supply-to-demand interface deck 1 mass flow rate check value iteration history trace: 7.942565E-002,7.942565E-002,7.942565E-002,7.942565E-002,7.942565E-002,7.942565E-002,7.942565E-002,7.942565E-002,7.942565E-002,7.942565E-002,
   **   ~~~   ** Air System Named = CENTRAL SYSTEM did not converge for energy
   **   ~~~   ** Check values should be zero. Most Recent values listed first.
   **   ~~~   ** Demand-to-Supply interface energy check value iteration history trace: 1573.954492,1573.954492,1573.954492,1573.954492,1573.954492,1573.954492,1573.954492,1573.954492,1573.954492,1573.954491,
   **   ~~~   ** Supply-to-demand interface deck 1 energy check value iteration history trace: 2687.682174,2687.682174,2687.682174,2687.682174,2687.682174,2687.682174,2687.682173,2687.682173,2687.682173,2687.682173,
   ** Warning ** SimHVAC: Maximum iterations (20) exceeded for all HVAC loops, at ANNUAL, 03/09 23:00 - 23:15
   **   ~~~   ** The solution for one or more of the Air Loop HVAC systems did not appear to converge
   **   ~~~   ** Air System Named = CENTRAL SYSTEM did not converge for mass flow rate
   **   ~~~   ** Check values should be zero. Most Recent values listed first.
   **   ~~~   ** Demand-to-Supply interface mass flow rate check value iteration history trace: 5.946857E-002,5.946857E-002,5.946857E-002,5.946857E-002,5.946857E-002,5.946857E-002,5.946857E-002,5.946857E-002,5.946857E-002,5.946857E-002,
   **   ~~~   ** Supply-to-demand interface deck 1 mass flow rate check value iteration history trace: 5.946857E-002,5.946857E-002,5.946857E-002,5.946857E-002,5.946857E-002,5.946857E-002,5.946857E-002,5.946857E-002,5.946857E-002,5.946857E-002,
   **   ~~~   ** Air System Named = CENTRAL SYSTEM did not converge for energy
   **   ~~~   ** Check values should be zero. Most Recent values listed first.
   **   ~~~   ** Demand-to-Supply interface energy check value iteration history trace: 1103.155378,1103.155378,1103.155378,1103.155378,1103.155378,1103.155378,1103.155378,1103.155378,1103.155378,1103.155378,
   **   ~~~   ** Supply-to-demand interface deck 1 energy check value iteration history trace: 1914.354528,1914.354528,1914.354528,1914.354528,1914.354528,1914.354527,1914.354527,1914.354527,1914.354527,1914.354527,
   ** Warning ** SimHVAC: Maximum iterations (20) exceeded for all HVAC loops, at ANNUAL, 03/19 09:03 - 09:06
   **   ~~~   ** The solution for one or more of the Air Loop HVAC systems did not appear to converge
   **   ~~~   ** Air System Named = CENTRAL SYSTEM did not converge for mass flow rate
   **   ~~~   ** Check values should be zero. Most Recent values listed first.
   **   ~~~   ** Demand-to-Supply interface mass flow rate check value iteration history trace: 7.912337E-002,7.912337E-002,7.912337E-002,7.912337E-002,7.912337E-002,7.912337E-002,7.912337E-002,7.912337E-002,7.912337E-002,7.912337E-002,
   **   ~~~   ** Supply-to-demand interface deck 1 mass flow rate check value iteration history trace: 7.912337E-002,7.912337E-002,7.912337E-002,7.912337E-002,7.912337E-002,7.912337E-002,7.912337E-002,7.912337E-002,7.912337E-002,7.912337E-002,
   **   ~~~   ** Air System Named = CENTRAL SYSTEM did not converge for energy
   **   ~~~   ** Check values should be zero. Most Recent values listed first.
   **   ~~~   ** Demand-to-Supply interface energy check value iteration history trace: 1567.964666,1567.964666,1567.964666,1567.964666,1567.964666,1567.964666,1567.964665,1567.964665,1567.964665,1567.964665,
   **   ~~~   ** Supply-to-demand interface deck 1 energy check value iteration history trace: 2675.374261,2675.374261,2675.374261,2675.374260,2675.374260,2675.374260,2675.374260,2675.374260,2675.374260,2675.374260,
   ** Warning ** SimHVAC: Maximum iterations (20) exceeded for all HVAC loops, at ANNUAL, 03/19 10:15 - 10:19
   **   ~~~   ** The solution for one or more of the Air Loop HVAC systems did not appear to converge
   **   ~~~   ** Air System Named = CENTRAL SYSTEM did not converge for mass flow rate
   **   ~~~   ** Check values should be zero. Most Recent values listed first.
   **   ~~~   ** Demand-to-Supply interface mass flow rate check value iteration history trace: 7.597521E-002,7.597521E-002,7.597521E-002,7.597521E-002,7.597521E-002,7.597521E-002,7.597521E-002,7.597521E-002,7.597521E-002,7.597521E-002,
   **   ~~~   ** Supply-to-demand interface deck 1 mass flow rate check value iteration history trace: 7.597521E-002,7.597521E-002,7.597521E-002,7.597521E-002,7.597521E-002,7.597521E-002,7.597521E-002,7.597521E-002,7.597521E-002,7.597521E-002,
   **   ~~~   ** Air System Named = CENTRAL SYSTEM did not converge for energy
   **   ~~~   ** Check values should be zero. Most Recent values listed first.
   **   ~~~   ** Demand-to-Supply interface energy check value iteration history trace: 1507.175335,1507.175335,1507.175335,1507.175335,1507.175335,1507.175335,1507.175334,1507.175334,1507.175334,1507.175334,
   **   ~~~   ** Supply-to-demand interface deck 1 energy check value iteration history trace: 2599.616808,2599.616808,2599.616808,2599.616808,2599.616808,2599.616807,2599.616807,2599.616807,2599.616807,2599.616807,
   ** Warning ** SimHVAC: Maximum iterations (20) exceeded for all HVAC loops, at ANNUAL, 03/31 10:15 - 10:30
   **   ~~~   ** The solution for one or more of the Air Loop HVAC systems did not appear to converge
   **   ~~~   ** Air System Named = CENTRAL SYSTEM did not converge for mass flow rate
   **   ~~~   ** Check values should be zero. Most Recent values listed first.
   **   ~~~   ** Demand-to-Supply interface mass flow rate check value iteration history trace: 8.310730E-002,8.310730E-002,8.310730E-002,8.310730E-002,8.310730E-002,8.310730E-002,8.310730E-002,8.310730E-002,8.310730E-002,8.310730E-002,
   **   ~~~   ** Supply-to-demand interface deck 1 mass flow rate check value iteration history trace: 8.310730E-002,8.310730E-002,8.310730E-002,8.310730E-002,8.310730E-002,8.310730E-002,8.310730E-002,8.310730E-002,8.310730E-002,8.310730E-002,
   **   ~~~   ** Air System Named = CENTRAL SYSTEM did not converge for energy
   **   ~~~   ** Check values should be zero. Most Recent values listed first.
   **   ~~~   ** Demand-to-Supply interface energy check value iteration history trace: 1646.951880,1646.951880,1646.951880,1646.951880,1646.951879,1646.951879,1646.951879,1646.951879,1646.951879,1646.951879,
   **   ~~~   ** Supply-to-demand interface deck 1 energy check value iteration history trace: 2758.777305,2758.777305,2758.777305,2758.777304,2758.777304,2758.777304,2758.777304,2758.777304,2758.777304,2758.777304,
   ** Warning ** SimHVAC: Maximum iterations (20) exceeded for all HVAC loops, at ANNUAL, 04/04 09:30 - 09:32
   **   ~~~   ** The solution for one or more of the Air Loop HVAC systems did not appear to converge
   **   ~~~   ** Air System Named = CENTRAL SYSTEM did not converge for mass flow rate
   **   ~~~   ** Check values should be zero. Most Recent values listed first.
   **   ~~~   ** Demand-to-Supply interface mass flow rate check value iteration history trace: 0.100305,0.100305,0.100305,0.100305,0.100305,0.100305,0.100305,0.100305,0.100305,0.100305,
   **   ~~~   ** Supply-to-demand interface deck 1 mass flow rate check value iteration history trace: 0.100305,0.100305,0.100305,0.100305,0.100305,0.100305,0.100305,0.100305,0.100305,0.100305,
   **   ~~~   ** Air System Named = CENTRAL SYSTEM did not converge for energy
   **   ~~~   ** Check values should be zero. Most Recent values listed first.
   **   ~~~   ** Demand-to-Supply interface energy check value iteration history trace: 1983.278382,1983.278382,1983.278381,1983.278381,1983.278381,1983.278381,1983.278381,1983.278381,1983.278381,1983.278381,
   **   ~~~   ** Supply-to-demand interface deck 1 energy check value iteration history trace: 3096.537594,3096.537594,3096.537594,3096.537593,3096.537593,3096.537593,3096.537593,3096.537593,3096.537592,3096.537592,
   ** Warning ** SimHVAC: Maximum iterations (20) exceeded for all HVAC loops, at ANNUAL, 04/23 08:15 - 08:30
   **   ~~~   ** The solution for one or more of the Air Loop HVAC systems did not appear to converge
   **   ~~~   ** Air System Named = CENTRAL SYSTEM did not converge for mass flow rate
   **   ~~~   ** Check values should be zero. Most Recent values listed first.
   **   ~~~   ** Demand-to-Supply interface mass flow rate check value iteration history trace: 5.424976E-002,5.424976E-002,5.424976E-002,5.424976E-002,5.424976E-002,5.424976E-002,5.424976E-002,5.424976E-002,5.424976E-002,5.424976E-002,
   **   ~~~   ** Supply-to-demand interface deck 1 mass flow rate check value iteration history trace: 5.424976E-002,5.424976E-002,5.424976E-002,5.424976E-002,5.424976E-002,5.424976E-002,5.424976E-002,5.424976E-002,5.424976E-002,5.424976E-002,
   **   ~~~   ** Air System Named = CENTRAL SYSTEM did not converge for energy
   **   ~~~   ** Check values should be zero. Most Recent values listed first.
   **   ~~~   ** Demand-to-Supply interface energy check value iteration history trace: 1075.040106,1075.040106,1075.040106,1075.040106,1075.040106,1075.040106,1075.040106,1075.040106,1075.040106,1075.040106,
   **   ~~~   ** Supply-to-demand interface deck 1 energy check value iteration history trace: 1852.214383,1852.214383,1852.214383,1852.214383,1852.214383,1852.214382,1852.214382,1852.214382,1852.214382,1852.214382,
   ** Warning ** SimHVAC: Maximum iterations (20) exceeded for all HVAC loops, at ANNUAL, 05/08 12:45 - 13:00
   **   ~~~   ** The solution for one or more of the Air Loop HVAC systems did not appear to converge
   **   ~~~   ** Air System Named = CENTRAL SYSTEM did not converge for mass flow rate
   **   ~~~   ** Check values should be zero. Most Recent values listed first.
   **   ~~~   ** Demand-to-Supply interface mass flow rate check value iteration history trace: 5.411385E-002,5.411385E-002,5.411385E-002,5.411385E-002,5.411385E-002,5.411385E-002,5.411385E-002,5.411385E-002,5.411385E-002,5.411385E-002,
   **   ~~~   ** Supply-to-demand interface deck 1 mass flow rate check value iteration history trace: 5.411385E-002,5.411385E-002,5.411385E-002,5.411385E-002,5.411385E-002,5.411385E-002,5.411385E-002,5.411385E-002,5.411385E-002,5.411385E-002,
   **   ~~~   ** Air System Named = CENTRAL SYSTEM did not converge for energy
   **   ~~~   ** Check values should be zero. Most Recent values listed first.
   **   ~~~   ** Demand-to-Supply interface energy check value iteration history trace: 1056.943157,1056.943157,1056.943157,1056.943157,1056.943157,1056.943156,1056.943156,1056.943156,1056.943156,1056.943156,
   **   ~~~   ** Supply-to-demand interface deck 1 energy check value iteration history trace: 1868.435122,1868.435122,1868.435121,1868.435121,1868.435121,1868.435120,1868.435120,1868.435120,1868.435119,1868.435119,
   ** Warning ** SimHVAC: Maximum iterations (20) exceeded for all HVAC loops, at ANNUAL, 10/18 07:45 - 08:00
   **   ~~~   ** The solution for one or more of the Air Loop HVAC systems did not appear to converge
   **   ~~~   ** Air System Named = CENTRAL SYSTEM did not converge for mass flow rate
   **   ~~~   ** Check values should be zero. Most Recent values listed first.
   **   ~~~   ** Demand-to-Supply interface mass flow rate check value iteration history trace: 5.811658E-002,5.811658E-002,5.811658E-002,5.811658E-002,5.811658E-002,5.811658E-002,5.811658E-002,5.811658E-002,5.811658E-002,5.811658E-002,
   **   ~~~   ** Supply-to-demand interface deck 1 mass flow rate check value iteration history trace: 5.811658E-002,5.811658E-002,5.811658E-002,5.811658E-002,5.811658E-002,5.811658E-002,5.811658E-002,5.811658E-002,5.811658E-002,5.811658E-002,
   **   ~~~   ** Air System Named = CENTRAL SYSTEM did not converge for energy
   **   ~~~   ** Check values should be zero. Most Recent values listed first.
   **   ~~~   ** Demand-to-Supply interface energy check value iteration history trace: 1151.723457,1151.723457,1151.723457,1151.723457,1151.723457,1151.723457,1151.723457,1151.723457,1151.723457,1151.723457,
   **   ~~~   ** Supply-to-demand interface deck 1 energy check value iteration history trace: 2019.229494,2019.229493,2019.229493,2019.229493,2019.229493,2019.229493,2019.229493,2019.229493,2019.229493,2019.229493,
   ** Warning ** SimHVAC: Maximum iterations (20) exceeded for all HVAC loops, at ANNUAL, 10/22 09:41 - 09:45
   **   ~~~   ** The solution for one or more of the Air Loop HVAC systems did not appear to converge
   **   ~~~   ** Air System Named = CENTRAL SYSTEM did not converge for mass flow rate
   **   ~~~   ** Check values should be zero. Most Recent values listed first.
   **   ~~~   ** Demand-to-Supply interface mass flow rate check value iteration history trace: 7.555013E-002,7.555013E-002,7.555013E-002,7.555013E-002,7.555013E-002,7.555013E-002,7.555013E-002,7.555013E-002,7.555013E-002,7.555013E-002,
   **   ~~~   ** Supply-to-demand interface deck 1 mass flow rate check value iteration history trace: 7.555013E-002,7.555013E-002,7.555013E-002,7.555013E-002,7.555013E-002,7.555013E-002,7.555013E-002,7.555013E-002,7.555013E-002,7.555013E-002,
   **   ~~~   ** Air System Named = CENTRAL SYSTEM did not converge for energy
   **   ~~~   ** Check values should be zero. Most Recent values listed first.
   **   ~~~   ** Demand-to-Supply interface energy check value iteration history trace: 1492.602708,1492.602707,1492.602707,1492.602707,1492.602707,1492.602707,1492.602707,1492.602707,1492.602707,1492.602707,
   **   ~~~   ** Supply-to-demand interface deck 1 energy check value iteration history trace: 2538.309993,2538.309993,2538.309993,2538.309993,2538.309992,2538.309992,2538.309992,2538.309992,2538.309992,2538.309992,
   ** Warning ** SimHVAC: Maximum iterations (20) exceeded for all HVAC loops, at ANNUAL, 10/26 00:15 - 00:30
   **   ~~~   ** The solution for one or more of the Air Loop HVAC systems did not appear to converge
   **   ~~~   ** Air System Named = CENTRAL SYSTEM did not converge for mass flow rate
   **   ~~~   ** Check values should be zero. Most Recent values listed first.
   **   ~~~   ** Demand-to-Supply interface mass flow rate check value iteration history trace: 8.798920E-002,8.798920E-002,8.798920E-002,8.798920E-002,8.798920E-002,8.798920E-002,8.798920E-002,8.798920E-002,8.798920E-002,8.798920E-002,
   **   ~~~   ** Supply-to-demand interface deck 1 mass flow rate check value iteration history trace: 8.798920E-002,8.798920E-002,8.798920E-002,8.798920E-002,8.798920E-002,8.798920E-002,8.798920E-002,8.798920E-002,8.798920E-002,8.798920E-002,
   **   ~~~   ** Air System Named = CENTRAL SYSTEM did not converge for energy
   **   ~~~   ** Check values should be zero. Most Recent values listed first.
   **   ~~~   ** Demand-to-Supply interface energy check value iteration history trace: 1642.865879,1642.865879,1642.865879,1642.865879,1642.865879,1642.865879,1642.865879,1642.865878,1642.865878,1642.865878,
   **   ~~~   ** Supply-to-demand interface deck 1 energy check value iteration history trace: 2504.331312,2504.331312,2504.331311,2504.331311,2504.331311,2504.331311,2504.331311,2504.331311,2504.331310,2504.331310,
   ************* Simulation Error Summary *************
   ** Warning ** The following Report Variables were requested but not generated -- check.rdd file
   **   ~~~   ** Either the IDF did not contain these elements, the variable name is misspelled,
   **   ~~~   ** or the requested variable is an advanced output which requires Output : Diagnostics, DisplayAdvancedReportVariables;
   ************* Key=*, VarName=BASEBOARD TOTAL HEATING ENERGY, Frequency=
   ************* Key=*, VarName=WATER HEATER NATURALGAS ENERGY, Frequency=
   ************* Key=*, VarName=COOLING COIL TOTAL HEATING ENERGY, Frequency=
   ************* There are 34 unused schedules in input.
   ************* There are 388 unused week schedules in input.
   ************* There are 396 unused day schedules in input.
   ************* Use Output:Diagnostics,DisplayUnusedSchedules; to see them.
   *************
   ************* ===== Recurring Error Summary =====
   ************* The following recurring error messages occurred.
   *************
   *************  ** Warning ** "TOTAL HOT WATER LOAD" - Target water temperature should be less than or equal to the hot water temperature error continues...
   *************  **   ~~~   **   This error occurred 143557 total times;
   *************  **   ~~~   **   during Warmup 0 times;
   *************  **   ~~~   **   during Sizing 0 times.
   *************  **   ~~~   **   Max=12.95612  Min=8.962975E-004
   *************
   *************  ** Warning ** SimHVAC: Exceeding Maximum iterations for all HVAC loops, during ANNUAL continues
   *************  **   ~~~   **   This error occurred 9 total times;
   *************  **   ~~~   **   during Warmup 0 times;
   *************  **   ~~~   **   during Sizing 0 times.
   *************
   *************
   ************* ===== Final Error Summary =====
   ************* The following error categories occurred.  Consider correcting or noting.
   ************* Loads Initialization did not Converge
   ************* ..1) very high thermal mass such as very thick concrete (solution: increase max number of warmup
   ************* ..   days in the BUILDING object);
   ************* ..2) moderate mass and inadequate space conditioning such that the building keeps getting warmer
   ************* ..   and warmer on successive days (solution: add HVAC, check building thermal properties,
   ************* ..   check if infiltration is included, make sure HVAC properly controlled);
   ************* ..3) a soil layer modeled below the concrete slab - (solution remove this layer and read about
   ************* ..   ground temperatures in the Auxiliary Programs document).
   ************* ..4) unreasonable (too small) limits in the BUILDING object for temperature (.4 default) or
   ************* ..   loads tolerances (.04 default)
   ************* Nominally Unused Constructions
   ************* ..The nominally unused constructions warning is provided to alert you to potential conditions that can cause
   ************* ..extra time during simulation. Each construction is calculated by the algorithm indicated in the HeatBalanceAlgorithm
   ************* ..object. You may remove the constructions indicated (when you use the DisplayExtraWarnings option).
   *************
   ************* EnergyPlus Warmup Error Summary. During Warmup: 1 Warning; 1 Severe Errors.
   ************* EnergyPlus Sizing Error Summary. During Sizing: 4 Warning; 0 Severe Errors.
   ************* EnergyPlus Completed Successfully-- 143598 Warning; 1 Severe Errors; Elapsed Time=00hr 01min 39.73sec
