Program Version,EnergyPlus, Version 22.2.0-c249759bad, YMD=2023.09.01 14:43,
   ************* Beginning Zone Sizing Calculations
   ** Warning ** ProcessScheduleInput: Schedule:Constant="ALWAYS ON DISCRETE", Schedule Type Limits Name="ONOFF" not found -- will not be validated
   ** Warning ** Foundation:Kiva="KIVA FOUNDATION", no Interior Horizontal Insulation Material Name defined
   **   ~~~   ** Interior Horizontal Insulation Depth will not be used.
   ** Warning ** CheckUsedConstructions: There are 15 nominally unused constructions in input.
   **   ~~~   ** Each Unused construction is shown.
   ************* Construction=INTERIOR FLOOR
   ************* Construction=INTERIOR WINDOW
   ************* Construction=EXTERIOR DOOR
   ************* Construction=INTERIOR DOOR
   ************* Construction=GABLE CONSTRUCTION
   ************* Construction=CRAWL_FLOOR
   ************* Construction=INSULATED PIPE
   ************* Construction=PLAIN PIPE
   ************* Construction=TDD PIPE
   ************* Construction=TDD DOME
   ************* Construction=TDD DIFFUSER
   ************* Construction=CRAWL WALL
   ************* Construction=CEILING-FLOOR-LAYER
   ************* Construction=SLAB CONSTRUCTION W FULL R10 INSULATION
   ************* Construction=SLAB CONSTRUCTION W FULL R5 INSULATION
   ** Warning ** GetDXCoils: Coil:Heating:DX:SingleSpeed="DX_HEATING_COIL" curve values
   **   ~~~   ** ... Defrost Energy Input Ratio Function of Temperature Curve Name = DEFROSTEIR output is not equal to 1.0 (+ or - 10%) at rated conditions.
   **   ~~~   ** ... Curve output at rated conditions = 0.152
   ************* Beginning System Sizing Calculations
   ************* Beginning Plant Sizing Calculations
   ** Warning ** SizeDXCoil Coil:Cooling:DX:SingleSpeed DX_COOLING_COIL
   **   ~~~   ** ...Gross Rated Total Cooling Capacity [W] will be limited by the maximum rated volume flow per rated total capacity ratio.
   **   ~~~   ** ...DX coil volume flow rate ( m3/s ) = 0.465820
   **   ~~~   ** ...Requested capacity ( W ) = 7679.064
   **   ~~~   ** ...Requested flow/capacity ratio ( m3/s/W ) = 6.066E-005
   **   ~~~   ** ...Maximum flow/capacity ratio ( m3/s/W ) = 6.041E-005
   **   ~~~   ** ...Adjusted capacity ( W ) = 7710.981
   ** Warning ** Coil:WaterHeating:AirToWaterHeatPump:Wrapped "HEAT PUMP WATER HEATER EVAPORATOR": Rated air volume flow rate per watt of rated total water heating capacity is out of range
   **   ~~~   ** Min Rated Vol Flow Per Watt=[4.027E-005], Rated Vol Flow Per Watt=[1.386E-004], Max Rated Vol Flow Per Watt=[8.056E-005]. See Input-Output Reference Manual for valid range.
   ** Warning ** Water heater = WATER HEATER TANK:  Recovery Efficiency and Energy Factor could not be calculated during the test for standard ratings
   **   ~~~   ** Setpoint was never recovered and/or heater never turned on
   ** Warning ** Check input. Pump nominal power or motor efficiency is set to 0, for pump=MAINS PRESSURE
   ** Warning ** Output:Meter: invalid Key Name="ELECTRIC_RANGE:INTERIOREQUIPMENT:ELECTRICITY" - not found.
   ** Warning ** Output:Meter: invalid Key Name="ELECTRIC_DRYER:INTERIOREQUIPMENT:ELECTRICITY" - not found.
   ** Warning ** Output:Meter: invalid Key Name="HEATRECOVERY:ELECTRICITY" - not found.
   ** Warning ** Output:Meter: invalid Key Name="HEATING:NATURALGAS" - not found.
   ** Warning ** Output:Meter: invalid Key Name="WATERSYSTEMS:NATURALGAS" - not found.
   ** Warning ** Output:Meter: invalid Key Name="PROPANE:FACILITY" - not found.
   ** Warning ** Output:Meter: invalid Key Name="HEATING:PROPANE" - not found.
   ************* Testing Individual Branch Integrity
   ************* All Branches passed integrity testing
   ************* Testing Individual Supply Air Path Integrity
   ************* All Supply Air Paths passed integrity testing
   ************* Testing Individual Return Air Path Integrity
   ************* All Return Air Paths passed integrity testing
   ************* No node connection errors were found.
   ************* Beginning Simulation
   ** Warning ** AirflowNetwork::Solver::validate_distribution: Heat pump water heater is simulated along with an AirflowNetwork but is not included in the AirflowNetwork.
   ** Warning ** CalcEquipmentFlowRates: "TOTAL HOT WATER LOAD" - Target water temperature is greater than the hot water temperature by (1.66 C)
   **   ~~~   **  Environment=EXTREME_WINTER, at Simulation time=12/22 06:00 - 06:15
   **   ~~~   ** ...target water temperature     = 53.33 C
   **   ~~~   ** ...hot water temperature        = 51.67 C
   **   ~~~   ** ...Target water temperature should be less than or equal to the hot water temperature. Verify temperature setpoints and schedules.
   ** Warning ** SimHVAC: Maximum iterations (20) exceeded for all HVAC loops, at EXTREME_WINTER, 12/23 19:00 - 19:15
   **   ~~~   ** The solution for one or more of the Air Loop HVAC systems did not appear to converge
   **   ~~~   ** Air System Named = CENTRAL SYSTEM did not converge for mass flow rate
   **   ~~~   ** Check values should be zero. Most Recent values listed first.
   **   ~~~   ** Demand-to-Supply interface mass flow rate check value iteration history trace: 8.715144E-002,8.715144E-002,8.715144E-002,8.715144E-002,8.715144E-002,8.715144E-002,8.715144E-002,8.715144E-002,8.715144E-002,8.715144E-002,
   **   ~~~   ** Supply-to-demand interface deck 1 mass flow rate check value iteration history trace: 8.715144E-002,8.715144E-002,8.715144E-002,8.715144E-002,8.715144E-002,8.715144E-002,8.715144E-002,8.715144E-002,8.715144E-002,8.715144E-002,
   **   ~~~   ** Air System Named = CENTRAL SYSTEM did not converge for energy
   **   ~~~   ** Check values should be zero. Most Recent values listed first.
   **   ~~~   ** Demand-to-Supply interface energy check value iteration history trace: 1727.592234,1727.592233,1727.592233,1727.592233,1727.592233,1727.592233,1727.592233,1727.592233,1727.592233,1727.592233,
   **   ~~~   ** Supply-to-demand interface deck 1 energy check value iteration history trace: 2872.044686,2872.044686,2872.044685,2872.044685,2872.044685,2872.044685,2872.044685,2872.044685,2872.044684,2872.044684,
   ** Warning ** SimHVAC: Maximum iterations (20) exceeded for all HVAC loops, at EXTREME_WINTER, 12/25 19:23 - 19:30
   **   ~~~   ** The solution for one or more of the Air Loop HVAC systems did not appear to converge
   **   ~~~   ** Air System Named = CENTRAL SYSTEM did not converge for mass flow rate
   **   ~~~   ** Check values should be zero. Most Recent values listed first.
   **   ~~~   ** Demand-to-Supply interface mass flow rate check value iteration history trace: 7.855995E-002,7.855995E-002,7.855995E-002,7.855995E-002,7.855995E-002,7.855995E-002,7.855995E-002,7.855995E-002,7.855995E-002,7.855995E-002,
   **   ~~~   ** Supply-to-demand interface deck 1 mass flow rate check value iteration history trace: 7.855995E-002,7.855995E-002,7.855995E-002,7.855995E-002,7.855995E-002,7.855995E-002,7.855995E-002,7.855995E-002,7.855995E-002,7.855995E-002,
   **   ~~~   ** Air System Named = CENTRAL SYSTEM did not converge for energy
   **   ~~~   ** Check values should be zero. Most Recent values listed first.
   **   ~~~   ** Demand-to-Supply interface energy check value iteration history trace: 1556.571483,1556.571483,1556.571483,1556.571483,1556.571483,1556.571483,1556.571483,1556.571483,1556.571483,1556.571483,
   **   ~~~   ** Supply-to-demand interface deck 1 energy check value iteration history trace: 2630.749282,2630.749282,2630.749282,2630.749282,2630.749282,2630.749281,2630.749281,2630.749281,2630.749281,2630.749281,
   ** Warning ** SimHVAC: Maximum iterations (20) exceeded for all HVAC loops, at ANNUAL, 02/18 11:00 - 11:08
   **   ~~~   ** The solution for one or more of the Air Loop HVAC systems did not appear to converge
   **   ~~~   ** Air System Named = CENTRAL SYSTEM did not converge for mass flow rate
   **   ~~~   ** Check values should be zero. Most Recent values listed first.
   **   ~~~   ** Demand-to-Supply interface mass flow rate check value iteration history trace: 7.001628E-002,7.001628E-002,7.001628E-002,7.001628E-002,7.001628E-002,7.001628E-002,7.001628E-002,7.001628E-002,7.001628E-002,7.001628E-002,
   **   ~~~   ** Supply-to-demand interface deck 1 mass flow rate check value iteration history trace: 7.001628E-002,7.001628E-002,7.001628E-002,7.001628E-002,7.001628E-002,7.001628E-002,7.001628E-002,7.001628E-002,7.001628E-002,7.001628E-002,
   **   ~~~   ** Air System Named = CENTRAL SYSTEM did not converge for energy
   **   ~~~   ** Check values should be zero. Most Recent values listed first.
   **   ~~~   ** Demand-to-Supply interface energy check value iteration history trace: 1387.496327,1387.496327,1387.496327,1387.496326,1387.496326,1387.496326,1387.496326,1387.496326,1387.496326,1387.496326,
   **   ~~~   ** Supply-to-demand interface deck 1 energy check value iteration history trace: 2410.565115,2410.565115,2410.565115,2410.565115,2410.565115,2410.565115,2410.565115,2410.565115,2410.565114,2410.565114,
   ** Warning ** SimHVAC: Maximum iterations (20) exceeded for all HVAC loops, at ANNUAL, 02/24 07:45 - 08:00
   **   ~~~   ** The solution for one or more of the Air Loop HVAC systems did not appear to converge
   **   ~~~   ** Air System Named = CENTRAL SYSTEM did not converge for mass flow rate
   **   ~~~   ** Check values should be zero. Most Recent values listed first.
   **   ~~~   ** Demand-to-Supply interface mass flow rate check value iteration history trace: 4.994500E-002,4.994500E-002,4.994500E-002,4.994500E-002,4.994500E-002,4.994500E-002,4.994500E-002,4.994500E-002,4.994500E-002,4.994500E-002,
   **   ~~~   ** Supply-to-demand interface deck 1 mass flow rate check value iteration history trace: 4.994500E-002,4.994500E-002,4.994500E-002,4.994500E-002,4.994500E-002,4.994500E-002,4.994500E-002,4.994500E-002,4.994500E-002,4.994500E-002,
   **   ~~~   ** Air System Named = CENTRAL SYSTEM did not converge for energy
   **   ~~~   ** Check values should be zero. Most Recent values listed first.
   **   ~~~   ** Demand-to-Supply interface energy check value iteration history trace: 986.936226,986.936226,986.936226,986.936226,986.936226,986.936226,986.936226,986.936226,986.936226,986.936226,
   **   ~~~   ** Supply-to-demand interface deck 1 energy check value iteration history trace: 1687.271723,1687.271723,1687.271723,1687.271723,1687.271723,1687.271723,1687.271723,1687.271723,1687.271723,1687.271723,
   ** Warning ** SimHVAC: Maximum iterations (20) exceeded for all HVAC loops, at ANNUAL, 03/26 08:50 - 08:52
   **   ~~~   ** The solution for one or more of the Air Loop HVAC systems did not appear to converge
   **   ~~~   ** Air System Named = CENTRAL SYSTEM did not converge for mass flow rate
   **   ~~~   ** Check values should be zero. Most Recent values listed first.
   **   ~~~   ** Demand-to-Supply interface mass flow rate check value iteration history trace: 7.744488E-002,7.744488E-002,7.744488E-002,7.744488E-002,7.744488E-002,7.744488E-002,7.744488E-002,7.744488E-002,7.744488E-002,7.744488E-002,
   **   ~~~   ** Supply-to-demand interface deck 1 mass flow rate check value iteration history trace: 7.744488E-002,7.744488E-002,7.744488E-002,7.744488E-002,7.744488E-002,7.744488E-002,7.744488E-002,7.744488E-002,7.744488E-002,7.744488E-002,
   **   ~~~   ** Air System Named = CENTRAL SYSTEM did not converge for energy
   **   ~~~   ** Check values should be zero. Most Recent values listed first.
   **   ~~~   ** Demand-to-Supply interface energy check value iteration history trace: 1529.370314,1529.370314,1529.370314,1529.370314,1529.370314,1529.370314,1529.370314,1529.370314,1529.370314,1529.370314,
   **   ~~~   ** Supply-to-demand interface deck 1 energy check value iteration history trace: 2700.022128,2700.022128,2700.022128,2700.022127,2700.022127,2700.022127,2700.022127,2700.022127,2700.022127,2700.022127,
   ** Warning ** SimHVAC: Maximum iterations (20) exceeded for all HVAC loops, at ANNUAL, 04/05 08:10 - 08:12
   **   ~~~   ** The solution for one or more of the Air Loop HVAC systems did not appear to converge
   **   ~~~   ** Air System Named = CENTRAL SYSTEM did not converge for mass flow rate
   **   ~~~   ** Check values should be zero. Most Recent values listed first.
   **   ~~~   ** Demand-to-Supply interface mass flow rate check value iteration history trace: 7.479550E-002,7.479550E-002,7.479550E-002,7.479550E-002,7.479550E-002,7.479550E-002,7.479550E-002,7.479550E-002,7.479550E-002,7.479550E-002,
   **   ~~~   ** Supply-to-demand interface deck 1 mass flow rate check value iteration history trace: 7.479550E-002,7.479550E-002,7.479550E-002,7.479550E-002,7.479550E-002,7.479550E-002,7.479550E-002,7.479550E-002,7.479550E-002,7.479550E-002,
   **   ~~~   ** Air System Named = CENTRAL SYSTEM did not converge for energy
   **   ~~~   ** Check values should be zero. Most Recent values listed first.
   **   ~~~   ** Demand-to-Supply interface energy check value iteration history trace: 1472.092176,1472.092176,1472.092176,1472.092176,1472.092176,1472.092176,1472.092176,1472.092176,1472.092176,1472.092176,
   **   ~~~   ** Supply-to-demand interface deck 1 energy check value iteration history trace: 2555.762622,2555.762622,2555.762622,2555.762622,2555.762622,2555.762622,2555.762622,2555.762622,2555.762621,2555.762621,
   ** Warning ** SimHVAC: Maximum iterations (20) exceeded for all HVAC loops, at ANNUAL, 04/29 10:00 - 10:15
   **   ~~~   ** The solution for one or more of the Air Loop HVAC systems did not appear to converge
   **   ~~~   ** Air System Named = CENTRAL SYSTEM did not converge for mass flow rate
   **   ~~~   ** Check values should be zero. Most Recent values listed first.
   **   ~~~   ** Demand-to-Supply interface mass flow rate check value iteration history trace: 4.669526E-002,4.669526E-002,4.669526E-002,4.669526E-002,4.669526E-002,4.669526E-002,4.669526E-002,4.669526E-002,4.669526E-002,4.669526E-002,
   **   ~~~   ** Supply-to-demand interface deck 1 mass flow rate check value iteration history trace: 4.669526E-002,4.669526E-002,4.669526E-002,4.669526E-002,4.669526E-002,4.669526E-002,4.669526E-002,4.669526E-002,4.669526E-002,4.669526E-002,
   **   ~~~   ** Air System Named = CENTRAL SYSTEM did not converge for energy
   **   ~~~   ** Check values should be zero. Most Recent values listed first.
   **   ~~~   ** Demand-to-Supply interface energy check value iteration history trace: 1101.073095,1101.073095,1101.073095,1101.073095,1101.073095,1101.073095,1101.073095,1101.073095,1101.073095,1101.073095,
   **   ~~~   ** Supply-to-demand interface deck 1 energy check value iteration history trace: 539.340354,539.340354,539.340354,539.340354,539.340355,539.340355,539.340355,539.340355,539.340355,539.340355,
   ** Warning ** SimHVAC: Maximum iterations (20) exceeded for all HVAC loops, at ANNUAL, 11/06 07:35 - 07:40
   **   ~~~   ** The solution for one or more of the Air Loop HVAC systems did not appear to converge
   **   ~~~   ** Air System Named = CENTRAL SYSTEM did not converge for mass flow rate
   **   ~~~   ** Check values should be zero. Most Recent values listed first.
   **   ~~~   ** Demand-to-Supply interface mass flow rate check value iteration history trace: 7.925988E-002,7.925988E-002,7.925988E-002,7.925988E-002,7.925988E-002,7.925988E-002,7.925988E-002,7.925988E-002,7.925988E-002,7.925988E-002,
   **   ~~~   ** Supply-to-demand interface deck 1 mass flow rate check value iteration history trace: 7.925988E-002,7.925988E-002,7.925988E-002,7.925988E-002,7.925988E-002,7.925988E-002,7.925988E-002,7.925988E-002,7.925988E-002,7.925988E-002,
   **   ~~~   ** Air System Named = CENTRAL SYSTEM did not converge for energy
   **   ~~~   ** Check values should be zero. Most Recent values listed first.
   **   ~~~   ** Demand-to-Supply interface energy check value iteration history trace: 1570.605635,1570.605635,1570.605635,1570.605635,1570.605635,1570.605635,1570.605635,1570.605634,1570.605634,1570.605634,
   **   ~~~   ** Supply-to-demand interface deck 1 energy check value iteration history trace: 2650.502598,2650.502598,2650.502598,2650.502598,2650.502598,2650.502598,2650.502598,2650.502597,2650.502597,2650.502597,
   ** Warning ** SimHVAC: Maximum iterations (20) exceeded for all HVAC loops, at ANNUAL, 11/07 20:38 - 20:45
   **   ~~~   ** The solution for one or more of the Air Loop HVAC systems did not appear to converge
   **   ~~~   ** Air System Named = CENTRAL SYSTEM did not converge for mass flow rate
   **   ~~~   ** Check values should be zero. Most Recent values listed first.
   **   ~~~   ** Demand-to-Supply interface mass flow rate check value iteration history trace: 0.121666,0.121666,0.121666,0.121666,0.121666,0.121666,0.121666,0.121666,0.121666,0.121666,
   **   ~~~   ** Supply-to-demand interface deck 1 mass flow rate check value iteration history trace: 0.121666,0.121666,0.121666,0.121666,0.121666,0.121666,0.121666,0.121666,0.121666,0.121666,
   **   ~~~   ** Air System Named = CENTRAL SYSTEM did not converge for energy
   **   ~~~   ** Check values should be zero. Most Recent values listed first.
   **   ~~~   ** Demand-to-Supply interface energy check value iteration history trace: 2861.194109,2861.194109,2861.194110,2861.194110,2861.194110,2861.194111,2861.194111,2861.194112,2861.194112,2861.194112,
   **   ~~~   ** Supply-to-demand interface deck 1 energy check value iteration history trace: 1358.305571,1358.305571,1358.305572,1358.305572,1358.305572,1358.305572,1358.305572,1358.305573,1358.305573,1358.305573,
   ** Warning ** SimHVAC: Maximum iterations (20) exceeded for all HVAC loops, at ANNUAL, 11/13 06:45 - 06:50
   **   ~~~   ** The solution for one or more of the Air Loop HVAC systems did not appear to converge
   **   ~~~   ** Air System Named = CENTRAL SYSTEM did not converge for mass flow rate
   **   ~~~   ** Check values should be zero. Most Recent values listed first.
   **   ~~~   ** Demand-to-Supply interface mass flow rate check value iteration history trace: 6.885611E-002,6.885611E-002,6.885611E-002,6.885611E-002,6.885611E-002,6.885611E-002,6.885611E-002,6.885611E-002,6.885611E-002,6.885611E-002,
   **   ~~~   ** Supply-to-demand interface deck 1 mass flow rate check value iteration history trace: 6.885611E-002,6.885611E-002,6.885611E-002,6.885611E-002,6.885611E-002,6.885611E-002,6.885611E-002,6.885611E-002,6.885611E-002,6.885611E-002,
   **   ~~~   ** Air System Named = CENTRAL SYSTEM did not converge for energy
   **   ~~~   ** Check values should be zero. Most Recent values listed first.
   **   ~~~   ** Demand-to-Supply interface energy check value iteration history trace: 1359.337012,1359.337012,1359.337012,1359.337012,1359.337012,1359.337012,1359.337012,1359.337011,1359.337011,1359.337011,
   **   ~~~   ** Supply-to-demand interface deck 1 energy check value iteration history trace: 2356.269901,2356.269901,2356.269901,2356.269901,2356.269901,2356.269901,2356.269901,2356.269901,2356.269900,2356.269900,
   ** Warning ** SimHVAC: Maximum iterations (20) exceeded for all HVAC loops, at ANNUAL, 11/17 06:15 - 06:30
   **   ~~~   ** The solution for one or more of the Air Loop HVAC systems did not appear to converge
   **   ~~~   ** Air System Named = CENTRAL SYSTEM did not converge for mass flow rate
   **   ~~~   ** Check values should be zero. Most Recent values listed first.
   **   ~~~   ** Demand-to-Supply interface mass flow rate check value iteration history trace: 7.323113E-002,7.323113E-002,7.323113E-002,7.323113E-002,7.323113E-002,7.323113E-002,7.323113E-002,7.323113E-002,7.323113E-002,7.323113E-002,
   **   ~~~   ** Supply-to-demand interface deck 1 mass flow rate check value iteration history trace: 7.323113E-002,7.323113E-002,7.323113E-002,7.323113E-002,7.323113E-002,7.323113E-002,7.323113E-002,7.323113E-002,7.323113E-002,7.323113E-002,
   **   ~~~   ** Air System Named = CENTRAL SYSTEM did not converge for energy
   **   ~~~   ** Check values should be zero. Most Recent values listed first.
   **   ~~~   ** Demand-to-Supply interface energy check value iteration history trace: 1441.237007,1441.237007,1441.237007,1441.237006,1441.237006,1441.237006,1441.237006,1441.237006,1441.237006,1441.237006,
   **   ~~~   ** Supply-to-demand interface deck 1 energy check value iteration history trace: 2441.440420,2441.440420,2441.440420,2441.440420,2441.440419,2441.440419,2441.440419,2441.440419,2441.440419,2441.440419,
   ** Warning ** SimHVAC: Maximum iterations (20) exceeded for all HVAC loops, at ANNUAL, 11/19 21:38 - 21:45
   **   ~~~   ** The solution for one or more of the Air Loop HVAC systems did not appear to converge
   **   ~~~   ** Air System Named = CENTRAL SYSTEM did not converge for mass flow rate
   **   ~~~   ** Check values should be zero. Most Recent values listed first.
   **   ~~~   ** Demand-to-Supply interface mass flow rate check value iteration history trace: 0.120909,0.120909,0.120909,0.120909,0.120909,0.120909,0.120909,0.120909,0.120909,0.120909,
   **   ~~~   ** Supply-to-demand interface deck 1 mass flow rate check value iteration history trace: 0.120909,0.120909,0.120909,0.120909,0.120909,0.120909,0.120909,0.120909,0.120909,0.120909,
   **   ~~~   ** Air System Named = CENTRAL SYSTEM did not converge for energy
   **   ~~~   ** Check values should be zero. Most Recent values listed first.
   **   ~~~   ** Demand-to-Supply interface energy check value iteration history trace: 2846.648119,2846.648120,2846.648120,2846.648120,2846.648121,2846.648121,2846.648121,2846.648122,2846.648122,2846.648122,
   **   ~~~   ** Supply-to-demand interface deck 1 energy check value iteration history trace: 1358.235813,1358.235813,1358.235813,1358.235814,1358.235814,1358.235814,1358.235814,1358.235814,1358.235814,1358.235815,
   ** Warning ** SimHVAC: Maximum iterations (20) exceeded for all HVAC loops, at ANNUAL, 11/21 07:15 - 07:30
   **   ~~~   ** The solution for one or more of the Air Loop HVAC systems did not appear to converge
   **   ~~~   ** Air System Named = CENTRAL SYSTEM did not converge for mass flow rate
   **   ~~~   ** Check values should be zero. Most Recent values listed first.
   **   ~~~   ** Demand-to-Supply interface mass flow rate check value iteration history trace: 6.857721E-002,6.857721E-002,6.857721E-002,6.857721E-002,6.857721E-002,6.857721E-002,6.857721E-002,6.857721E-002,6.857721E-002,6.857721E-002,
   **   ~~~   ** Supply-to-demand interface deck 1 mass flow rate check value iteration history trace: 6.857721E-002,6.857721E-002,6.857721E-002,6.857721E-002,6.857721E-002,6.857721E-002,6.857721E-002,6.857721E-002,6.857721E-002,6.857721E-002,
   **   ~~~   ** Air System Named = CENTRAL SYSTEM did not converge for energy
   **   ~~~   ** Check values should be zero. Most Recent values listed first.
   **   ~~~   ** Demand-to-Supply interface energy check value iteration history trace: 1358.885612,1358.885612,1358.885612,1358.885611,1358.885611,1358.885611,1358.885611,1358.885611,1358.885611,1358.885611,
   **   ~~~   ** Supply-to-demand interface deck 1 energy check value iteration history trace: 2352.966488,2352.966487,2352.966487,2352.966487,2352.966487,2352.966487,2352.966487,2352.966487,2352.966487,2352.966487,
   ** Warning ** SimHVAC: Maximum iterations (20) exceeded for all HVAC loops, at ANNUAL, 11/27 13:15 - 13:30
   **   ~~~   ** The solution for one or more of the Air Loop HVAC systems did not appear to converge
   **   ~~~   ** Air System Named = CENTRAL SYSTEM did not converge for mass flow rate
   **   ~~~   ** Check values should be zero. Most Recent values listed first.
   **   ~~~   ** Demand-to-Supply interface mass flow rate check value iteration history trace: 6.084880E-002,6.084880E-002,6.084880E-002,6.084880E-002,6.084880E-002,6.084880E-002,6.084880E-002,6.084880E-002,6.084880E-002,6.084880E-002,
   **   ~~~   ** Supply-to-demand interface deck 1 mass flow rate check value iteration history trace: 6.084880E-002,6.084880E-002,6.084880E-002,6.084880E-002,6.084880E-002,6.084880E-002,6.084880E-002,6.084880E-002,6.084880E-002,6.084880E-002,
   **   ~~~   ** Air System Named = CENTRAL SYSTEM did not converge for energy
   **   ~~~   ** Check values should be zero. Most Recent values listed first.
   **   ~~~   ** Demand-to-Supply interface energy check value iteration history trace: 1205.747105,1205.747105,1205.747105,1205.747105,1205.747105,1205.747105,1205.747105,1205.747105,1205.747105,1205.747105,
   **   ~~~   ** Supply-to-demand interface deck 1 energy check value iteration history trace: 2131.079751,2131.079751,2131.079750,2131.079750,2131.079750,2131.079750,2131.079750,2131.079750,2131.079750,2131.079750,
   ************* Simulation Error Summary *************
   ** Warning ** The following Report Variables were requested but not generated -- check.rdd file
   **   ~~~   ** Either the IDF did not contain these elements, the variable name is misspelled,
   **   ~~~   ** or the requested variable is an advanced output which requires Output : Diagnostics, DisplayAdvancedReportVariables;
   ************* Key=*, VarName=BASEBOARD TOTAL HEATING ENERGY, Frequency=
   ************* Key=*, VarName=WATER HEATER NATURALGAS ENERGY, Frequency=
   ************* Key=*, VarName=COOLING COIL TOTAL HEATING ENERGY, Frequency=
   ************* There are 34 unused schedules in input.
   ************* There are 388 unused week schedules in input.
   ************* There are 396 unused day schedules in input.
   ************* Use Output:Diagnostics,DisplayUnusedSchedules; to see them.
   *************
   ************* ===== Recurring Error Summary =====
   ************* The following recurring error messages occurred.
   *************
   *************  ** Warning ** "TOTAL HOT WATER LOAD" - Target water temperature should be less than or equal to the hot water temperature error continues...
   *************  **   ~~~   **   This error occurred 127157 total times;
   *************  **   ~~~   **   during Warmup 0 times;
   *************  **   ~~~   **   during Sizing 0 times.
   *************  **   ~~~   **   Max=7.639728  Min=1.063353E-004
   *************
   *************  ** Warning ** SimHVAC: Exceeding Maximum iterations for all HVAC loops, during ANNUAL continues
   *************  **   ~~~   **   This error occurred 1 total times;
   *************  **   ~~~   **   during Warmup 0 times;
   *************  **   ~~~   **   during Sizing 0 times.
   *************
   *************
   ************* ===== Final Error Summary =====
   ************* The following error categories occurred.  Consider correcting or noting.
   ************* Nominally Unused Constructions
   ************* ..The nominally unused constructions warning is provided to alert you to potential conditions that can cause
   ************* ..extra time during simulation. Each construction is calculated by the algorithm indicated in the HeatBalanceAlgorithm
   ************* ..object. You may remove the constructions indicated (when you use the DisplayExtraWarnings option).
   *************
   ************* EnergyPlus Warmup Error Summary. During Warmup: 1 Warning; 0 Severe Errors.
   ************* EnergyPlus Sizing Error Summary. During Sizing: 4 Warning; 0 Severe Errors.
   ************* EnergyPlus Completed Successfully-- 127190 Warning; 0 Severe Errors; Elapsed Time=00hr 06min 25.15sec
