Program Version,EnergyPlus, Version 22.2.0-c249759bad, YMD=2023.09.01 18:58,
   ************* Beginning Zone Sizing Calculations
   ** Warning ** ProcessScheduleInput: Schedule:Constant="ALWAYS ON DISCRETE", Schedule Type Limits Name="ONOFF" not found -- will not be validated
   ** Warning ** Foundation:Kiva="KIVA FOUNDATION", no Interior Horizontal Insulation Material Name defined
   **   ~~~   ** Interior Horizontal Insulation Depth will not be used.
   ** Warning ** CheckUsedConstructions: There are 15 nominally unused constructions in input.
   **   ~~~   ** Each Unused construction is shown.
   ************* Construction=INTERIOR FLOOR
   ************* Construction=INTERIOR WINDOW
   ************* Construction=EXTERIOR DOOR
   ************* Construction=INTERIOR DOOR
   ************* Construction=GABLE CONSTRUCTION
   ************* Construction=CRAWL_FLOOR
   ************* Construction=INSULATED PIPE
   ************* Construction=PLAIN PIPE
   ************* Construction=TDD PIPE
   ************* Construction=TDD DOME
   ************* Construction=TDD DIFFUSER
   ************* Construction=CRAWL WALL
   ************* Construction=CEILING-FLOOR-LAYER
   ************* Construction=SLAB CONSTRUCTION W FULL R10 INSULATION
   ************* Construction=SLAB CONSTRUCTION W FULL R5 INSULATION
   ** Warning ** GetDXCoils: Coil:Heating:DX:SingleSpeed="DX_HEATING_COIL" curve values
   **   ~~~   ** ... Defrost Energy Input Ratio Function of Temperature Curve Name = DEFROSTEIR output is not equal to 1.0 (+ or - 10%) at rated conditions.
   **   ~~~   ** ... Curve output at rated conditions = 0.152
   ** Warning ** Temperature out of range [-100. to 200.] (PsyPsatFnTemp)
   **   ~~~   **  Routine=PsyTwbFnTdbWPb, During Sizing, Environment=EXTREME_WINTER, at Simulation time=12/24 13:45 - 13:49
   **   ~~~   **  Input Temperature=-496.13
   ************* Beginning System Sizing Calculations
   ************* Beginning Plant Sizing Calculations
   ** Warning ** SizeDXCoil Coil:Cooling:DX:SingleSpeed DX_COOLING_COIL
   **   ~~~   ** ...Gross Rated Total Cooling Capacity [W] will be limited by the maximum rated volume flow per rated total capacity ratio.
   **   ~~~   ** ...DX coil volume flow rate ( m3/s ) = 0.540798
   **   ~~~   ** ...Requested capacity ( W ) = 6987.316
   **   ~~~   ** ...Requested flow/capacity ratio ( m3/s/W ) = 7.739E-005
   **   ~~~   ** ...Maximum flow/capacity ratio ( m3/s/W ) = 6.041E-005
   **   ~~~   ** ...Adjusted capacity ( W ) = 8952.141
   ** Warning ** SizeDXCoil Coil:Heating:DX:SingleSpeed DX_HEATING_COIL
   **   ~~~   ** ...Gross Rated Heating Capacity [W] will be limited by the maximum rated volume flow per rated total capacity ratio.
   **   ~~~   ** ...DX coil volume flow rate ( m3/s ) = 0.540798
   **   ~~~   ** ...Requested capacity ( W ) = 8952.141
   **   ~~~   ** ...Requested flow/capacity ratio ( m3/s/W ) = 6.041E-005
   **   ~~~   ** ...Maximum flow/capacity ratio ( m3/s/W ) = 6.041E-005
   **   ~~~   ** ...Adjusted capacity ( W ) = 8952.141
   ** Warning ** Coil:WaterHeating:AirToWaterHeatPump:Wrapped "HEAT PUMP WATER HEATER EVAPORATOR": Rated air volume flow rate per watt of rated total water heating capacity is out of range
   **   ~~~   ** Min Rated Vol Flow Per Watt=[4.027E-005], Rated Vol Flow Per Watt=[1.510E-004], Max Rated Vol Flow Per Watt=[8.056E-005]. See Input-Output Reference Manual for valid range.
   ************* SizeFan: : Potential issue with equipment sizing for Fan:OnOff HEAT PUMP WATER HEATER FAN
   **   ~~~   ** User-Specified Maximum Flow Rate [m3/s] = 0.22653
   **   ~~~   ** differs from Design Size Maximum Flow Rate [m3/s] = 7.55250E-002
   **   ~~~   ** This may, or may not, indicate mismatched component sizes.
   **   ~~~   ** Verify that the value entered is intended and is consistent with other components.
   ** Warning ** Water heater = WATER HEATER TANK:  Recovery Efficiency and Energy Factor could not be calculated during the test for standard ratings
   **   ~~~   ** Setpoint was never recovered and/or heater never turned on
   ** Warning ** Check input. Pump nominal power or motor efficiency is set to 0, for pump=MAINS PRESSURE
   ** Warning ** Output:Meter: invalid Key Name="ELECTRIC_RANGE:INTERIOREQUIPMENT:ELECTRICITY" - not found.
   ** Warning ** Output:Meter: invalid Key Name="ELECTRIC_DRYER:INTERIOREQUIPMENT:ELECTRICITY" - not found.
   ** Warning ** Output:Meter: invalid Key Name="HEATRECOVERY:ELECTRICITY" - not found.
   ** Warning ** Output:Meter: invalid Key Name="HEATING:NATURALGAS" - not found.
   ** Warning ** Output:Meter: invalid Key Name="WATERSYSTEMS:NATURALGAS" - not found.
   ** Warning ** Output:Meter: invalid Key Name="PROPANE:FACILITY" - not found.
   ** Warning ** Output:Meter: invalid Key Name="HEATING:PROPANE" - not found.
   ************* Testing Individual Branch Integrity
   ************* All Branches passed integrity testing
   ************* Testing Individual Supply Air Path Integrity
   ************* All Supply Air Paths passed integrity testing
   ************* Testing Individual Return Air Path Integrity
   ************* All Return Air Paths passed integrity testing
   ************* No node connection errors were found.
   ************* Beginning Simulation
   ** Warning ** AirflowNetwork::Solver::validate_distribution: Heat pump water heater is simulated along with an AirflowNetwork but is not included in the AirflowNetwork.
   ** Severe  ** CheckWarmupConvergence: Loads Initialization, Zone="LIVING" did not converge after 25 warmup days.
   **   ~~~   ** See Warmup Convergence Information in .eio file for details.
   **   ~~~   ** ...Environment(SizingPeriod)="EXTREME_WINTER"
   **   ~~~   ** ..Max Temp Comparison = 1.41E-004 vs Temperature Convergence Tolerance=5.00E-002 - Pass Convergence
   **   ~~~   ** ..Min Temp Comparison = 3.75E-002 vs Temperature Convergence Tolerance=5.00E-002 - Pass Convergence
   **   ~~~   ** ..Max Heat Load Comparison = 3.7373E-003 vs Loads Convergence Tolerance=5.00E-002 - Pass Convergence
   **   ~~~   ** ..Max Cool Load Comparison = 0.8825 vs Loads Convergence Tolerance=5.00E-002 - Fail Convergence
   ** Severe  ** CheckWarmupConvergence: Loads Initialization, Zone="ATTIC" did not converge after 25 warmup days.
   **   ~~~   ** ...Environment(SizingPeriod)="EXTREME_WINTER"
   **   ~~~   ** ..Max Temp Comparison = 4.21E-003 vs Temperature Convergence Tolerance=5.00E-002 - Pass Convergence
   **   ~~~   ** ..Min Temp Comparison = 5.27E-002 vs Temperature Convergence Tolerance=5.00E-002 - Fail Convergence
   **   ~~~   ** ..Max Heat Load Comparison = 0.0000 vs Loads Convergence Tolerance=5.00E-002 - Pass Convergence
   **   ~~~   ** ..Max Cool Load Comparison = 0.0000 vs Loads Convergence Tolerance=5.00E-002 - Pass Convergence
   ** Warning ** CalcEquipmentFlowRates: "TOTAL HOT WATER LOAD" - Target water temperature is greater than the hot water temperature by (5.25E-002 C)
   **   ~~~   **  Environment=EXTREME_WINTER, at Simulation time=12/22 03:45 - 04:00
   **   ~~~   ** ...target water temperature     = 53.33 C
   **   ~~~   ** ...hot water temperature        = 53.28 C
   **   ~~~   ** ...Target water temperature should be less than or equal to the hot water temperature. Verify temperature setpoints and schedules.
   ** Warning ** SimHVAC: Maximum iterations (20) exceeded for all HVAC loops, at EXTREME_WINTER, 12/29 13:45 - 14:00
   **   ~~~   ** The solution for one or more of the Air Loop HVAC systems did not appear to converge
   **   ~~~   ** Air System Named = CENTRAL SYSTEM did not converge for mass flow rate
   **   ~~~   ** Check values should be zero. Most Recent values listed first.
   **   ~~~   ** Demand-to-Supply interface mass flow rate check value iteration history trace: 4.762889E-002,4.762889E-002,4.762889E-002,4.762889E-002,4.762889E-002,4.762889E-002,4.762889E-002,4.762889E-002,4.762889E-002,4.762889E-002,
   **   ~~~   ** Supply-to-demand interface deck 1 mass flow rate check value iteration history trace: 4.762889E-002,4.762889E-002,4.762889E-002,4.762889E-002,4.762889E-002,4.762889E-002,4.762889E-002,4.762889E-002,4.762889E-002,4.762889E-002,
   **   ~~~   ** Air System Named = CENTRAL SYSTEM did not converge for energy
   **   ~~~   ** Check values should be zero. Most Recent values listed first.
   **   ~~~   ** Demand-to-Supply interface energy check value iteration history trace: 943.891134,943.891134,943.891134,943.891134,943.891134,943.891133,943.891133,943.891133,943.891133,943.891133,
   **   ~~~   ** Supply-to-demand interface deck 1 energy check value iteration history trace: 1482.395707,1482.395707,1482.395706,1482.395706,1482.395706,1482.395706,1482.395706,1482.395706,1482.395706,1482.395706,
   ** Warning ** SimHVAC: Maximum iterations (20) exceeded for all HVAC loops, at ANNUAL, 01/04 10:32 - 10:33
   **   ~~~   ** The solution for one or more of the Air Loop HVAC systems did not appear to converge
   **   ~~~   ** Air System Named = CENTRAL SYSTEM did not converge for mass flow rate
   **   ~~~   ** Check values should be zero. Most Recent values listed first.
   **   ~~~   ** Demand-to-Supply interface mass flow rate check value iteration history trace: 5.768682E-002,5.768682E-002,5.768682E-002,5.768682E-002,5.768682E-002,5.768682E-002,5.768682E-002,5.768682E-002,5.768682E-002,5.768682E-002,
   **   ~~~   ** Supply-to-demand interface deck 1 mass flow rate check value iteration history trace: 5.768682E-002,5.768682E-002,5.768682E-002,5.768682E-002,5.768682E-002,5.768682E-002,5.768682E-002,5.768682E-002,5.768682E-002,5.768682E-002,
   **   ~~~   ** Air System Named = CENTRAL SYSTEM did not converge for energy
   **   ~~~   ** Check values should be zero. Most Recent values listed first.
   **   ~~~   ** Demand-to-Supply interface energy check value iteration history trace: 1143.262433,1143.262433,1143.262433,1143.262433,1143.262433,1143.262433,1143.262433,1143.262433,1143.262433,1143.262433,
   **   ~~~   ** Supply-to-demand interface deck 1 energy check value iteration history trace: 1843.155252,1843.155252,1843.155252,1843.155252,1843.155251,1843.155251,1843.155251,1843.155251,1843.155251,1843.155251,
   ** Warning ** SimHVAC: Maximum iterations (20) exceeded for all HVAC loops, at ANNUAL, 01/04 10:45 - 11:00
   **   ~~~   ** The solution for one or more of the Air Loop HVAC systems did not appear to converge
   **   ~~~   ** Air System Named = CENTRAL SYSTEM did not converge for mass flow rate
   **   ~~~   ** Check values should be zero. Most Recent values listed first.
   **   ~~~   ** Demand-to-Supply interface mass flow rate check value iteration history trace: 5.066645E-002,5.066645E-002,5.066645E-002,5.066645E-002,5.066645E-002,5.066645E-002,5.066645E-002,5.066645E-002,5.066645E-002,5.066645E-002,
   **   ~~~   ** Supply-to-demand interface deck 1 mass flow rate check value iteration history trace: 5.066645E-002,5.066645E-002,5.066645E-002,5.066645E-002,5.066645E-002,5.066645E-002,5.066645E-002,5.066645E-002,5.066645E-002,5.066645E-002,
   **   ~~~   ** Air System Named = CENTRAL SYSTEM did not converge for energy
   **   ~~~   ** Check values should be zero. Most Recent values listed first.
   **   ~~~   ** Demand-to-Supply interface energy check value iteration history trace: 1003.692934,1003.692934,1003.692934,1003.692934,1003.692933,1003.692933,1003.692933,1003.692933,1003.692933,1003.692933,
   **   ~~~   ** Supply-to-demand interface deck 1 energy check value iteration history trace: 1629.848142,1629.848142,1629.848142,1629.848142,1629.848142,1629.848142,1629.848142,1629.848142,1629.848142,1629.848141,
   ** Warning ** SimHVAC: Maximum iterations (20) exceeded for all HVAC loops, at ANNUAL, 01/21 23:55 - 24:00
   **   ~~~   ** The solution for one or more of the Air Loop HVAC systems did not appear to converge
   **   ~~~   ** Air System Named = CENTRAL SYSTEM did not converge for mass flow rate
   **   ~~~   ** Check values should be zero. Most Recent values listed first.
   **   ~~~   ** Demand-to-Supply interface mass flow rate check value iteration history trace: 5.351687E-002,5.351687E-002,5.351687E-002,5.351687E-002,5.351687E-002,5.351687E-002,5.351687E-002,5.351687E-002,5.351687E-002,5.351687E-002,
   **   ~~~   ** Supply-to-demand interface deck 1 mass flow rate check value iteration history trace: 5.351687E-002,5.351687E-002,5.351687E-002,5.351687E-002,5.351687E-002,5.351687E-002,5.351687E-002,5.351687E-002,5.351687E-002,5.351687E-002,
   **   ~~~   ** Air System Named = CENTRAL SYSTEM did not converge for energy
   **   ~~~   ** Check values should be zero. Most Recent values listed first.
   **   ~~~   ** Demand-to-Supply interface energy check value iteration history trace: 1011.814302,1011.814302,1011.814302,1011.814302,1011.814302,1011.814302,1011.814302,1011.814302,1011.814302,1011.814302,
   **   ~~~   ** Supply-to-demand interface deck 1 energy check value iteration history trace: 1703.568217,1703.568217,1703.568217,1703.568217,1703.568217,1703.568217,1703.568217,1703.568217,1703.568217,1703.568217,
   ** Warning ** SimHVAC: Maximum iterations (20) exceeded for all HVAC loops, at ANNUAL, 03/11 04:38 - 04:45
   **   ~~~   ** The solution for one or more of the Air Loop HVAC systems did not appear to converge
   **   ~~~   ** Air System Named = CENTRAL SYSTEM did not converge for mass flow rate
   **   ~~~   ** Check values should be zero. Most Recent values listed first.
   **   ~~~   ** Demand-to-Supply interface mass flow rate check value iteration history trace: 3.448424E-002,3.448424E-002,3.448424E-002,3.448424E-002,3.448424E-002,3.448424E-002,3.448424E-002,3.448424E-002,3.448424E-002,3.448424E-002,
   **   ~~~   ** Supply-to-demand interface deck 1 mass flow rate check value iteration history trace: 3.448424E-002,3.448424E-002,3.448424E-002,3.448424E-002,3.448424E-002,3.448424E-002,3.448424E-002,3.448424E-002,3.448424E-002,3.448424E-002,
   **   ~~~   ** Air System Named = CENTRAL SYSTEM did not converge for energy
   **   ~~~   ** Check values should be zero. Most Recent values listed first.
   **   ~~~   ** Demand-to-Supply interface energy check value iteration history trace: 644.685973,644.685973,644.685973,644.685973,644.685973,644.685973,644.685973,644.685973,644.685973,644.685973,
   **   ~~~   ** Supply-to-demand interface deck 1 energy check value iteration history trace: 1207.633621,1207.633621,1207.633620,1207.633620,1207.633620,1207.633620,1207.633620,1207.633620,1207.633620,1207.633620,
   ** Warning ** SimHVAC: Maximum iterations (20) exceeded for all HVAC loops, at ANNUAL, 03/13 07:15 - 07:22
   **   ~~~   ** The solution for one or more of the Air Loop HVAC systems did not appear to converge
   **   ~~~   ** Air System Named = CENTRAL SYSTEM did not converge for mass flow rate
   **   ~~~   ** Check values should be zero. Most Recent values listed first.
   **   ~~~   ** Demand-to-Supply interface mass flow rate check value iteration history trace: 5.970709E-002,5.970709E-002,5.970709E-002,5.970709E-002,5.970709E-002,5.970709E-002,5.970709E-002,5.970709E-002,5.970709E-002,5.970709E-002,
   **   ~~~   ** Supply-to-demand interface deck 1 mass flow rate check value iteration history trace: 5.970709E-002,5.970709E-002,5.970709E-002,5.970709E-002,5.970709E-002,5.970709E-002,5.970709E-002,5.970709E-002,5.970709E-002,5.970709E-002,
   **   ~~~   ** Air System Named = CENTRAL SYSTEM did not converge for energy
   **   ~~~   ** Check values should be zero. Most Recent values listed first.
   **   ~~~   ** Demand-to-Supply interface energy check value iteration history trace: 1183.125531,1183.125531,1183.125531,1183.125531,1183.125531,1183.125531,1183.125531,1183.125531,1183.125531,1183.125530,
   **   ~~~   ** Supply-to-demand interface deck 1 energy check value iteration history trace: 2137.494350,2137.494350,2137.494350,2137.494350,2137.494350,2137.494350,2137.494349,2137.494349,2137.494349,2137.494349,
   ** Warning ** SimHVAC: Maximum iterations (20) exceeded for all HVAC loops, at ANNUAL, 03/25 07:15 - 07:18
   **   ~~~   ** The solution for one or more of the Air Loop HVAC systems did not appear to converge
   **   ~~~   ** Air System Named = CENTRAL SYSTEM did not converge for mass flow rate
   **   ~~~   ** Check values should be zero. Most Recent values listed first.
   **   ~~~   ** Demand-to-Supply interface mass flow rate check value iteration history trace: 4.722857E-002,4.722857E-002,4.722857E-002,4.722857E-002,4.722857E-002,4.722857E-002,4.722857E-002,4.722856E-002,4.722856E-002,4.722856E-002,
   **   ~~~   ** Supply-to-demand interface deck 1 mass flow rate check value iteration history trace: 4.722857E-002,4.722857E-002,4.722857E-002,4.722857E-002,4.722857E-002,4.722857E-002,4.722857E-002,4.722856E-002,4.722856E-002,4.722856E-002,
   **   ~~~   ** Air System Named = CENTRAL SYSTEM did not converge for energy
   **   ~~~   ** Check values should be zero. Most Recent values listed first.
   **   ~~~   ** Demand-to-Supply interface energy check value iteration history trace: 935.902581,935.902581,935.902581,935.902581,935.902581,935.902581,935.902581,935.902581,935.902581,935.902581,
   **   ~~~   ** Supply-to-demand interface deck 1 energy check value iteration history trace: 1721.383863,1721.383863,1721.383863,1721.383862,1721.383862,1721.383862,1721.383862,1721.383862,1721.383862,1721.383862,
   ** Warning ** SimHVAC: Maximum iterations (20) exceeded for all HVAC loops, at ANNUAL, 03/28 06:15 - 06:20
   **   ~~~   ** The solution for one or more of the Air Loop HVAC systems did not appear to converge
   **   ~~~   ** Air System Named = CENTRAL SYSTEM did not converge for mass flow rate
   **   ~~~   ** Check values should be zero. Most Recent values listed first.
   **   ~~~   ** Demand-to-Supply interface mass flow rate check value iteration history trace: 5.921426E-002,5.921426E-002,5.921426E-002,5.921426E-002,5.921426E-002,5.921426E-002,5.921426E-002,5.921426E-002,5.921426E-002,5.921426E-002,
   **   ~~~   ** Supply-to-demand interface deck 1 mass flow rate check value iteration history trace: 5.921426E-002,5.921426E-002,5.921426E-002,5.921426E-002,5.921426E-002,5.921426E-002,5.921426E-002,5.921426E-002,5.921426E-002,5.921426E-002,
   **   ~~~   ** Air System Named = CENTRAL SYSTEM did not converge for energy
   **   ~~~   ** Check values should be zero. Most Recent values listed first.
   **   ~~~   ** Demand-to-Supply interface energy check value iteration history trace: 1182.278802,1182.278801,1182.278801,1182.278801,1182.278801,1182.278801,1182.278801,1182.278801,1182.278801,1182.278801,
   **   ~~~   ** Supply-to-demand interface deck 1 energy check value iteration history trace: 2125.101415,2125.101415,2125.101414,2125.101414,2125.101414,2125.101414,2125.101414,2125.101414,2125.101414,2125.101414,
   ** Warning ** WetBulb not converged after 101 iterations(PsyTwbFnTdbWPb)
   **   ~~~   **  Routine=Unknown, Environment=ANNUAL, at Simulation time=04/03 13:30 - 13:32
   **   ~~~   **  Input Temperature = 5.70
   **   ~~~   **  Input Humidity Ratio= 2.275634E-003
   **   ~~~   **  Input Pressure = 83613.25
   **   ~~~   **  Resultant Temperature= -2.00E-003
   ** Warning ** SimHVAC: Maximum iterations (20) exceeded for all HVAC loops, at ANNUAL, 04/04 06:40 - 06:45
   **   ~~~   ** The solution for one or more of the Air Loop HVAC systems did not appear to converge
   **   ~~~   ** Air System Named = CENTRAL SYSTEM did not converge for mass flow rate
   **   ~~~   ** Check values should be zero. Most Recent values listed first.
   **   ~~~   ** Demand-to-Supply interface mass flow rate check value iteration history trace: 5.088939E-002,5.088939E-002,5.088939E-002,5.088939E-002,5.088939E-002,5.088939E-002,5.088939E-002,5.088939E-002,5.088939E-002,5.088939E-002,
   **   ~~~   ** Supply-to-demand interface deck 1 mass flow rate check value iteration history trace: 5.088939E-002,5.088939E-002,5.088939E-002,5.088939E-002,5.088939E-002,5.088939E-002,5.088939E-002,5.088939E-002,5.088939E-002,5.088939E-002,
   **   ~~~   ** Air System Named = CENTRAL SYSTEM did not converge for energy
   **   ~~~   ** Check values should be zero. Most Recent values listed first.
   **   ~~~   ** Demand-to-Supply interface energy check value iteration history trace: 1008.428432,1008.428432,1008.428432,1008.428432,1008.428432,1008.428432,1008.428432,1008.428432,1008.428432,1008.428432,
   **   ~~~   ** Supply-to-demand interface deck 1 energy check value iteration history trace: 1859.444088,1859.444088,1859.444088,1859.444088,1859.444088,1859.444088,1859.444088,1859.444088,1859.444088,1859.444087,
   ** Warning ** SimHVAC: Maximum iterations (20) exceeded for all HVAC loops, at ANNUAL, 04/04 06:55 - 07:00
   **   ~~~   ** The solution for one or more of the Air Loop HVAC systems did not appear to converge
   **   ~~~   ** Air System Named = CENTRAL SYSTEM did not converge for mass flow rate
   **   ~~~   ** Check values should be zero. Most Recent values listed first.
   **   ~~~   ** Demand-to-Supply interface mass flow rate check value iteration history trace: 4.805234E-002,4.805234E-002,4.805234E-002,4.805234E-002,4.805234E-002,4.805234E-002,4.805234E-002,4.805234E-002,4.805234E-002,4.805234E-002,
   **   ~~~   ** Supply-to-demand interface deck 1 mass flow rate check value iteration history trace: 4.805234E-002,4.805234E-002,4.805234E-002,4.805234E-002,4.805234E-002,4.805234E-002,4.805234E-002,4.805234E-002,4.805234E-002,4.805234E-002,
   **   ~~~   ** Air System Named = CENTRAL SYSTEM did not converge for energy
   **   ~~~   ** Check values should be zero. Most Recent values listed first.
   **   ~~~   ** Demand-to-Supply interface energy check value iteration history trace: 950.891914,950.891914,950.891914,950.891914,950.891914,950.891914,950.891914,950.891914,950.891914,950.891914,
   **   ~~~   ** Supply-to-demand interface deck 1 energy check value iteration history trace: 1770.749282,1770.749282,1770.749282,1770.749282,1770.749282,1770.749282,1770.749282,1770.749282,1770.749282,1770.749282,
   ** Warning ** SimHVAC: Maximum iterations (20) exceeded for all HVAC loops, at ANNUAL, 04/29 19:45 - 20:00
   **   ~~~   ** The solution for one or more of the Air Loop HVAC systems did not appear to converge
   **   ~~~   ** Air System Named = CENTRAL SYSTEM did not converge for mass flow rate
   **   ~~~   ** Check values should be zero. Most Recent values listed first.
   **   ~~~   ** Demand-to-Supply interface mass flow rate check value iteration history trace: 2.708935E-002,2.708935E-002,2.708935E-002,2.708935E-002,2.708935E-002,2.708935E-002,2.708935E-002,2.708935E-002,2.708935E-002,2.708935E-002,
   **   ~~~   ** Supply-to-demand interface deck 1 mass flow rate check value iteration history trace: 2.708935E-002,2.708935E-002,2.708935E-002,2.708935E-002,2.708935E-002,2.708935E-002,2.708935E-002,2.708935E-002,2.708935E-002,2.708935E-002,
   **   ~~~   ** Air System Named = CENTRAL SYSTEM did not converge for energy
   **   ~~~   ** Check values should be zero. Most Recent values listed first.
   **   ~~~   ** Demand-to-Supply interface energy check value iteration history trace: 644.076112,644.076112,644.076112,644.076112,644.076113,644.076113,644.076113,644.076113,644.076113,644.076113,
   **   ~~~   ** Supply-to-demand interface deck 1 energy check value iteration history trace: 160.599794,160.599794,160.599794,160.599794,160.599794,160.599794,160.599794,160.599794,160.599794,160.599794,
   ** Warning ** SimHVAC: Maximum iterations (20) exceeded for all HVAC loops, at ANNUAL, 04/29 20:53 - 21:00
   **   ~~~   ** The solution for one or more of the Air Loop HVAC systems did not appear to converge
   **   ~~~   ** Air System Named = CENTRAL SYSTEM did not converge for mass flow rate
   **   ~~~   ** Check values should be zero. Most Recent values listed first.
   **   ~~~   ** Demand-to-Supply interface mass flow rate check value iteration history trace: 8.278936E-002,8.278936E-002,8.278936E-002,8.278936E-002,8.278936E-002,8.278936E-002,8.278936E-002,8.278936E-002,8.278936E-002,8.278936E-002,
   **   ~~~   ** Supply-to-demand interface deck 1 mass flow rate check value iteration history trace: 8.278936E-002,8.278936E-002,8.278936E-002,8.278936E-002,8.278936E-002,8.278936E-002,8.278936E-002,8.278936E-002,8.278936E-002,8.278936E-002,
   **   ~~~   ** Air System Named = CENTRAL SYSTEM did not converge for energy
   **   ~~~   ** Check values should be zero. Most Recent values listed first.
   **   ~~~   ** Demand-to-Supply interface energy check value iteration history trace: 1968.316204,1968.316205,1968.316205,1968.316205,1968.316205,1968.316205,1968.316205,1968.316205,1968.316205,1968.316205,
   **   ~~~   ** Supply-to-demand interface deck 1 energy check value iteration history trace: 488.654516,488.654516,488.654516,488.654516,488.654516,488.654516,488.654516,488.654516,488.654516,488.654516,
   ** Warning ** SimHVAC: Maximum iterations (20) exceeded for all HVAC loops, at ANNUAL, 05/08 08:50 - 08:52
   **   ~~~   ** The solution for one or more of the Air Loop HVAC systems did not appear to converge
   **   ~~~   ** Air System Named = CENTRAL SYSTEM did not converge for mass flow rate
   **   ~~~   ** Check values should be zero. Most Recent values listed first.
   **   ~~~   ** Demand-to-Supply interface mass flow rate check value iteration history trace: 0.237340,0.237340,0.237340,0.237340,0.237340,0.237340,0.237340,0.237340,0.237340,0.237340,
   **   ~~~   ** Supply-to-demand interface deck 1 mass flow rate check value iteration history trace: 0.237340,0.237340,0.237340,0.237340,0.237340,0.237340,0.237340,0.237340,0.237340,0.237340,
   **   ~~~   ** Air System Named = CENTRAL SYSTEM did not converge for energy
   **   ~~~   ** Check values should be zero. Most Recent values listed first.
   **   ~~~   ** Demand-to-Supply interface energy check value iteration history trace: 5625.050697,5625.050698,5625.050698,5625.050699,5625.050699,5625.050700,5625.050700,5625.050701,5625.050701,5625.050702,
   **   ~~~   ** Supply-to-demand interface deck 1 energy check value iteration history trace: 1636.480806,1636.480806,1636.480806,1636.480806,1636.480806,1636.480806,1636.480806,1636.480806,1636.480807,1636.480807,
   ** Warning ** SimHVAC: Maximum iterations (20) exceeded for all HVAC loops, at ANNUAL, 05/12 08:08 - 08:09
   **   ~~~   ** The solution for one or more of the Air Loop HVAC systems did not appear to converge
   **   ~~~   ** Air System Named = CENTRAL SYSTEM did not converge for mass flow rate
   **   ~~~   ** Check values should be zero. Most Recent values listed first.
   **   ~~~   ** Demand-to-Supply interface mass flow rate check value iteration history trace: 0.284744,0.284744,0.284744,0.284744,0.284744,0.284744,0.284744,0.284744,0.284744,0.284744,
   **   ~~~   ** Supply-to-demand interface deck 1 mass flow rate check value iteration history trace: 0.284744,0.284744,0.284744,0.284744,0.284744,0.284744,0.284744,0.284744,0.284744,0.284744,
   **   ~~~   ** Air System Named = CENTRAL SYSTEM did not converge for energy
   **   ~~~   ** Check values should be zero. Most Recent values listed first.
   **   ~~~   ** Demand-to-Supply interface energy check value iteration history trace: 6785.261945,6785.261945,6785.261946,6785.261946,6785.261947,6785.261948,6785.261948,6785.261949,6785.261950,6785.261950,
   **   ~~~   ** Supply-to-demand interface deck 1 energy check value iteration history trace: 2228.313586,2228.313586,2228.313586,2228.313586,2228.313587,2228.313587,2228.313587,2228.313587,2228.313587,2228.313588,
   ************* Simulation Error Summary *************
   ** Warning ** The following Report Variables were requested but not generated -- check.rdd file
   **   ~~~   ** Either the IDF did not contain these elements, the variable name is misspelled,
   **   ~~~   ** or the requested variable is an advanced output which requires Output : Diagnostics, DisplayAdvancedReportVariables;
   ************* Key=*, VarName=BASEBOARD TOTAL HEATING ENERGY, Frequency=
   ************* Key=*, VarName=WATER HEATER NATURALGAS ENERGY, Frequency=
   ************* Key=*, VarName=COOLING COIL TOTAL HEATING ENERGY, Frequency=
   ************* There are 34 unused schedules in input.
   ************* There are 388 unused week schedules in input.
   ************* There are 396 unused day schedules in input.
   ************* Use Output:Diagnostics,DisplayUnusedSchedules; to see them.
   *************
   ************* ===== Recurring Error Summary =====
   ************* The following recurring error messages occurred.
   *************
   *************  ** Warning ** Temperature out of range [-100. to 200.] (PsyPsatFnTemp)
   *************  **   ~~~   **   This error occurred 16 total times;
   *************  **   ~~~   **   during Warmup 0 times;
   *************  **   ~~~   **   during Sizing 1 times.
   *************  **   ~~~   **   Max=-140.400124 C  Min=-835.936432 C
   *************
   *************  ** Warning ** "TOTAL HOT WATER LOAD" - Target water temperature should be less than or equal to the hot water temperature error continues...
   *************  **   ~~~   **   This error occurred 75255 total times;
   *************  **   ~~~   **   during Warmup 0 times;
   *************  **   ~~~   **   during Sizing 0 times.
   *************  **   ~~~   **   Max=6.159032  Min=2.963840E-004
   *************
   *************  ** Warning ** WetBulb not converged after max iterations(PsyTwbFnTdbWPb)
   *************  **   ~~~   **   This error occurred 4 total times;
   *************  **   ~~~   **   during Warmup 0 times;
   *************  **   ~~~   **   during Sizing 0 times.
   *************
   *************  ** Warning ** SimHVAC: Exceeding Maximum iterations for all HVAC loops, during ANNUAL continues
   *************  **   ~~~   **   This error occurred 6 total times;
   *************  **   ~~~   **   during Warmup 0 times;
   *************  **   ~~~   **   during Sizing 0 times.
   *************
   *************
   ************* ===== Final Error Summary =====
   ************* The following error categories occurred.  Consider correcting or noting.
   ************* Loads Initialization did not Converge
   ************* ..1) very high thermal mass such as very thick concrete (solution: increase max number of warmup
   ************* ..   days in the BUILDING object);
   ************* ..2) moderate mass and inadequate space conditioning such that the building keeps getting warmer
   ************* ..   and warmer on successive days (solution: add HVAC, check building thermal properties,
   ************* ..   check if infiltration is included, make sure HVAC properly controlled);
   ************* ..3) a soil layer modeled below the concrete slab - (solution remove this layer and read about
   ************* ..   ground temperatures in the Auxiliary Programs document).
   ************* ..4) unreasonable (too small) limits in the BUILDING object for temperature (.4 default) or
   ************* ..   loads tolerances (.04 default)
   ************* Nominally Unused Constructions
   ************* ..The nominally unused constructions warning is provided to alert you to potential conditions that can cause
   ************* ..extra time during simulation. Each construction is calculated by the algorithm indicated in the HeatBalanceAlgorithm
   ************* ..object. You may remove the constructions indicated (when you use the DisplayExtraWarnings option).
   *************
   ************* EnergyPlus Warmup Error Summary. During Warmup: 1 Warning; 2 Severe Errors.
   ************* EnergyPlus Sizing Error Summary. During Sizing: 4 Warning; 0 Severe Errors.
   ************* EnergyPlus Completed Successfully-- 75314 Warning; 2 Severe Errors; Elapsed Time=00hr 01min 53.41sec
