Program Version,EnergyPlus, Version 22.2.0-c249759bad, YMD=2023.09.01 20:10,
   ************* Beginning Zone Sizing Calculations
   ** Warning ** ProcessScheduleInput: Schedule:Constant="ALWAYS ON DISCRETE", Schedule Type Limits Name="ONOFF" not found -- will not be validated
   ** Warning ** Foundation:Kiva="KIVA FOUNDATION", no Interior Horizontal Insulation Material Name defined
   **   ~~~   ** Interior Horizontal Insulation Depth will not be used.
   ** Warning ** CheckUsedConstructions: There are 15 nominally unused constructions in input.
   **   ~~~   ** Each Unused construction is shown.
   ************* Construction=INTERIOR FLOOR
   ************* Construction=INTERIOR WINDOW
   ************* Construction=EXTERIOR DOOR
   ************* Construction=INTERIOR DOOR
   ************* Construction=GABLE CONSTRUCTION
   ************* Construction=CRAWL_FLOOR
   ************* Construction=INSULATED PIPE
   ************* Construction=PLAIN PIPE
   ************* Construction=TDD PIPE
   ************* Construction=TDD DOME
   ************* Construction=TDD DIFFUSER
   ************* Construction=CRAWL WALL
   ************* Construction=CEILING-FLOOR-LAYER
   ************* Construction=SLAB CONSTRUCTION W FULL R10 INSULATION
   ************* Construction=SLAB CONSTRUCTION W FULL R5 INSULATION
   ** Warning ** GetDXCoils: Coil:Heating:DX:SingleSpeed="DX_HEATING_COIL" curve values
   **   ~~~   ** ... Defrost Energy Input Ratio Function of Temperature Curve Name = DEFROSTEIR output is not equal to 1.0 (+ or - 10%) at rated conditions.
   **   ~~~   ** ... Curve output at rated conditions = 0.152
   ************* Beginning System Sizing Calculations
   ************* Beginning Plant Sizing Calculations
   ** Warning ** SizeDXCoil Coil:Cooling:DX:SingleSpeed DX_COOLING_COIL
   **   ~~~   ** ...Gross Rated Total Cooling Capacity [W] will be limited by the maximum rated volume flow per rated total capacity ratio.
   **   ~~~   ** ...DX coil volume flow rate ( m3/s ) = 0.587972
   **   ~~~   ** ...Requested capacity ( W ) = 8431.988
   **   ~~~   ** ...Requested flow/capacity ratio ( m3/s/W ) = 6.973E-005
   **   ~~~   ** ...Maximum flow/capacity ratio ( m3/s/W ) = 6.041E-005
   **   ~~~   ** ...Adjusted capacity ( W ) = 9733.039
   ** Warning ** Coil:WaterHeating:AirToWaterHeatPump:Wrapped "HEAT PUMP WATER HEATER EVAPORATOR": Rated air volume flow rate per watt of rated total water heating capacity is out of range
   **   ~~~   ** Min Rated Vol Flow Per Watt=[4.027E-005], Rated Vol Flow Per Watt=[1.510E-004], Max Rated Vol Flow Per Watt=[8.056E-005]. See Input-Output Reference Manual for valid range.
   ************* SizeFan: : Potential issue with equipment sizing for Fan:OnOff HEAT PUMP WATER HEATER FAN
   **   ~~~   ** User-Specified Maximum Flow Rate [m3/s] = 0.22653
   **   ~~~   ** differs from Design Size Maximum Flow Rate [m3/s] = 7.55250E-002
   **   ~~~   ** This may, or may not, indicate mismatched component sizes.
   **   ~~~   ** Verify that the value entered is intended and is consistent with other components.
   ** Warning ** Water heater = WATER HEATER TANK:  Recovery Efficiency and Energy Factor could not be calculated during the test for standard ratings
   **   ~~~   ** Setpoint was never recovered and/or heater never turned on
   ** Warning ** Check input. Pump nominal power or motor efficiency is set to 0, for pump=MAINS PRESSURE
   ** Warning ** Output:Meter: invalid Key Name="ELECTRIC_RANGE:INTERIOREQUIPMENT:ELECTRICITY" - not found.
   ** Warning ** Output:Meter: invalid Key Name="ELECTRIC_DRYER:INTERIOREQUIPMENT:ELECTRICITY" - not found.
   ** Warning ** Output:Meter: invalid Key Name="HEATRECOVERY:ELECTRICITY" - not found.
   ** Warning ** Output:Meter: invalid Key Name="HEATING:NATURALGAS" - not found.
   ** Warning ** Output:Meter: invalid Key Name="WATERSYSTEMS:NATURALGAS" - not found.
   ** Warning ** Output:Meter: invalid Key Name="PROPANE:FACILITY" - not found.
   ** Warning ** Output:Meter: invalid Key Name="HEATING:PROPANE" - not found.
   ************* Testing Individual Branch Integrity
   ************* All Branches passed integrity testing
   ************* Testing Individual Supply Air Path Integrity
   ************* All Supply Air Paths passed integrity testing
   ************* Testing Individual Return Air Path Integrity
   ************* All Return Air Paths passed integrity testing
   ************* No node connection errors were found.
   ************* Beginning Simulation
   ** Warning ** AirflowNetwork::Solver::validate_distribution: Heat pump water heater is simulated along with an AirflowNetwork but is not included in the AirflowNetwork.
   ** Warning ** CalcEquipmentFlowRates: "TOTAL HOT WATER LOAD" - Target water temperature is greater than the hot water temperature by (3.67 C)
   **   ~~~   **  Environment=EXTREME_WINTER, at Simulation time=12/22 07:00 - 07:15
   **   ~~~   ** ...target water temperature     = 53.33 C
   **   ~~~   ** ...hot water temperature        = 49.67 C
   **   ~~~   ** ...Target water temperature should be less than or equal to the hot water temperature. Verify temperature setpoints and schedules.
   ** Warning ** SimHVAC: Maximum iterations (20) exceeded for all HVAC loops, at EXTREME_WINTER, 01/02 20:15 - 20:30
   **   ~~~   ** The solution for one or more of the Air Loop HVAC systems did not appear to converge
   **   ~~~   ** Air System Named = CENTRAL SYSTEM did not converge for mass flow rate
   **   ~~~   ** Check values should be zero. Most Recent values listed first.
   **   ~~~   ** Demand-to-Supply interface mass flow rate check value iteration history trace: 9.931819E-002,9.931819E-002,9.931819E-002,9.931819E-002,9.931819E-002,9.931819E-002,9.931819E-002,9.931819E-002,9.931819E-002,9.931819E-002,
   **   ~~~   ** Supply-to-demand interface deck 1 mass flow rate check value iteration history trace: 9.931819E-002,9.931819E-002,9.931819E-002,9.931819E-002,9.931819E-002,9.931819E-002,9.931819E-002,9.931819E-002,9.931819E-002,9.931819E-002,
   **   ~~~   ** Air System Named = CENTRAL SYSTEM did not converge for energy
   **   ~~~   ** Check values should be zero. Most Recent values listed first.
   **   ~~~   ** Demand-to-Supply interface energy check value iteration history trace: 1951.315875,1951.315875,1951.315875,1951.315875,1951.315875,1951.315875,1951.315874,1951.315874,1951.315874,1951.315874,
   **   ~~~   ** Supply-to-demand interface deck 1 energy check value iteration history trace: 2926.498961,2926.498961,2926.498961,2926.498961,2926.498960,2926.498960,2926.498960,2926.498960,2926.498959,2926.498959,
   ** Warning ** SimHVAC: Maximum iterations (20) exceeded for all HVAC loops, at ANNUAL, 01/01 20:45 - 21:00
   **   ~~~   ** The solution for one or more of the Air Loop HVAC systems did not appear to converge
   **   ~~~   ** Air System Named = CENTRAL SYSTEM did not converge for mass flow rate
   **   ~~~   ** Check values should be zero. Most Recent values listed first.
   **   ~~~   ** Demand-to-Supply interface mass flow rate check value iteration history trace: 0.100631,0.100631,0.100631,0.100631,0.100631,0.100631,0.100631,0.100631,0.100631,0.100631,
   **   ~~~   ** Supply-to-demand interface deck 1 mass flow rate check value iteration history trace: 0.100631,0.100631,0.100631,0.100631,0.100631,0.100631,0.100631,0.100631,0.100631,0.100631,
   **   ~~~   ** Air System Named = CENTRAL SYSTEM did not converge for energy
   **   ~~~   ** Check values should be zero. Most Recent values listed first.
   **   ~~~   ** Demand-to-Supply interface energy check value iteration history trace: 1993.425841,1993.425841,1993.425841,1993.425841,1993.425841,1993.425841,1993.425840,1993.425840,1993.425840,1993.425840,
   **   ~~~   ** Supply-to-demand interface deck 1 energy check value iteration history trace: 3060.433407,3060.433407,3060.433407,3060.433407,3060.433406,3060.433406,3060.433406,3060.433406,3060.433406,3060.433405,
   ** Warning ** SimHVAC: Maximum iterations (20) exceeded for all HVAC loops, at ANNUAL, 01/18 23:30 - 23:45
   **   ~~~   ** The solution for one or more of the Air Loop HVAC systems did not appear to converge
   **   ~~~   ** Air System Named = CENTRAL SYSTEM did not converge for mass flow rate
   **   ~~~   ** Check values should be zero. Most Recent values listed first.
   **   ~~~   ** Demand-to-Supply interface mass flow rate check value iteration history trace: 7.459679E-002,7.459679E-002,7.459679E-002,7.459679E-002,7.459679E-002,7.459679E-002,7.459679E-002,7.459679E-002,7.459679E-002,7.459679E-002,
   **   ~~~   ** Supply-to-demand interface deck 1 mass flow rate check value iteration history trace: 7.459679E-002,7.459679E-002,7.459679E-002,7.459679E-002,7.459679E-002,7.459679E-002,7.459679E-002,7.459679E-002,7.459679E-002,7.459679E-002,
   **   ~~~   ** Air System Named = CENTRAL SYSTEM did not converge for energy
   **   ~~~   ** Check values should be zero. Most Recent values listed first.
   **   ~~~   ** Demand-to-Supply interface energy check value iteration history trace: 1390.985776,1390.985776,1390.985776,1390.985776,1390.985776,1390.985776,1390.985776,1390.985776,1390.985776,1390.985776,
   **   ~~~   ** Supply-to-demand interface deck 1 energy check value iteration history trace: 2268.141156,2268.141156,2268.141156,2268.141156,2268.141156,2268.141156,2268.141156,2268.141155,2268.141155,2268.141155,
   ** Warning ** SimHVAC: Maximum iterations (20) exceeded for all HVAC loops, at ANNUAL, 01/29 09:25 - 09:27
   **   ~~~   ** The solution for one or more of the Air Loop HVAC systems did not appear to converge
   **   ~~~   ** Air System Named = CENTRAL SYSTEM did not converge for mass flow rate
   **   ~~~   ** Check values should be zero. Most Recent values listed first.
   **   ~~~   ** Demand-to-Supply interface mass flow rate check value iteration history trace: 5.668635E-002,5.668635E-002,5.668635E-002,5.668635E-002,5.668635E-002,5.668635E-002,5.668635E-002,5.668635E-002,5.668635E-002,5.668635E-002,
   **   ~~~   ** Supply-to-demand interface deck 1 mass flow rate check value iteration history trace: 5.668635E-002,5.668635E-002,5.668635E-002,5.668635E-002,5.668635E-002,5.668635E-002,5.668635E-002,5.668635E-002,5.668635E-002,5.668635E-002,
   **   ~~~   ** Air System Named = CENTRAL SYSTEM did not converge for energy
   **   ~~~   ** Check values should be zero. Most Recent values listed first.
   **   ~~~   ** Demand-to-Supply interface energy check value iteration history trace: 1119.773731,1119.773731,1119.773731,1119.773731,1119.773731,1119.773731,1119.773730,1119.773730,1119.773730,1119.773730,
   **   ~~~   ** Supply-to-demand interface deck 1 energy check value iteration history trace: 2189.872206,2189.872206,2189.872206,2189.872206,2189.872206,2189.872206,2189.872206,2189.872206,2189.872206,2189.872206,
   ** Warning ** SimHVAC: Maximum iterations (20) exceeded for all HVAC loops, at ANNUAL, 02/15 17:20 - 17:25
   **   ~~~   ** The solution for one or more of the Air Loop HVAC systems did not appear to converge
   **   ~~~   ** Air System Named = CENTRAL SYSTEM did not converge for mass flow rate
   **   ~~~   ** Check values should be zero. Most Recent values listed first.
   **   ~~~   ** Demand-to-Supply interface mass flow rate check value iteration history trace: 8.349510E-002,8.349510E-002,8.349510E-002,8.349510E-002,8.349510E-002,8.349510E-002,8.349510E-002,8.349510E-002,8.349510E-002,8.349510E-002,
   **   ~~~   ** Supply-to-demand interface deck 1 mass flow rate check value iteration history trace: 8.349510E-002,8.349510E-002,8.349510E-002,8.349510E-002,8.349510E-002,8.349510E-002,8.349510E-002,8.349510E-002,8.349510E-002,8.349510E-002,
   **   ~~~   ** Air System Named = CENTRAL SYSTEM did not converge for energy
   **   ~~~   ** Check values should be zero. Most Recent values listed first.
   **   ~~~   ** Demand-to-Supply interface energy check value iteration history trace: 1644.937887,1644.937887,1644.937887,1644.937887,1644.937887,1644.937887,1644.937887,1644.937887,1644.937886,1644.937886,
   **   ~~~   ** Supply-to-demand interface deck 1 energy check value iteration history trace: 2538.927530,2538.927529,2538.927529,2538.927529,2538.927529,2538.927529,2538.927529,2538.927528,2538.927528,2538.927528,
   ** Warning ** SimHVAC: Maximum iterations (20) exceeded for all HVAC loops, at ANNUAL, 03/08 06:45 - 07:00
   **   ~~~   ** The solution for one or more of the Air Loop HVAC systems did not appear to converge
   **   ~~~   ** Air System Named = CENTRAL SYSTEM did not converge for mass flow rate
   **   ~~~   ** Check values should be zero. Most Recent values listed first.
   **   ~~~   ** Demand-to-Supply interface mass flow rate check value iteration history trace: 3.892582E-002,3.892582E-002,3.892582E-002,3.892582E-002,3.892582E-002,3.892582E-002,3.892582E-002,3.892582E-002,3.892582E-002,3.892582E-002,
   **   ~~~   ** Supply-to-demand interface deck 1 mass flow rate check value iteration history trace: 3.892582E-002,3.892582E-002,3.892582E-002,3.892582E-002,3.892582E-002,3.892582E-002,3.892582E-002,3.892582E-002,3.892582E-002,3.892582E-002,
   **   ~~~   ** Air System Named = CENTRAL SYSTEM did not converge for energy
   **   ~~~   ** Check values should be zero. Most Recent values listed first.
   **   ~~~   ** Demand-to-Supply interface energy check value iteration history trace: 772.879369,772.879369,772.879369,772.879369,772.879369,772.879369,772.879369,772.879368,772.879368,772.879368,
   **   ~~~   ** Supply-to-demand interface deck 1 energy check value iteration history trace: 1270.710656,1270.710656,1270.710656,1270.710656,1270.710656,1270.710656,1270.710656,1270.710656,1270.710656,1270.710655,
   ** Warning ** SimHVAC: Maximum iterations (20) exceeded for all HVAC loops, at ANNUAL, 03/20 08:53 - 09:00
   **   ~~~   ** The solution for one or more of the Air Loop HVAC systems did not appear to converge
   **   ~~~   ** Air System Named = CENTRAL SYSTEM did not converge for mass flow rate
   **   ~~~   ** Check values should be zero. Most Recent values listed first.
   **   ~~~   ** Demand-to-Supply interface mass flow rate check value iteration history trace: 5.515548E-002,5.515548E-002,5.515548E-002,5.515548E-002,5.515548E-002,5.515548E-002,5.515548E-002,5.515548E-002,5.515548E-002,5.515548E-002,
   **   ~~~   ** Supply-to-demand interface deck 1 mass flow rate check value iteration history trace: 5.515548E-002,5.515548E-002,5.515548E-002,5.515548E-002,5.515548E-002,5.515548E-002,5.515548E-002,5.515548E-002,5.515548E-002,5.515548E-002,
   **   ~~~   ** Air System Named = CENTRAL SYSTEM did not converge for energy
   **   ~~~   ** Check values should be zero. Most Recent values listed first.
   **   ~~~   ** Demand-to-Supply interface energy check value iteration history trace: 1076.500406,1076.500406,1076.500406,1076.500406,1076.500406,1076.500406,1076.500406,1076.500406,1076.500406,1076.500406,
   **   ~~~   ** Supply-to-demand interface deck 1 energy check value iteration history trace: 1998.002998,1998.002997,1998.002997,1998.002997,1998.002997,1998.002997,1998.002997,1998.002997,1998.002997,1998.002997,
   ** Warning ** SimHVAC: Maximum iterations (20) exceeded for all HVAC loops, at ANNUAL, 03/25 06:45 - 07:00
   **   ~~~   ** The solution for one or more of the Air Loop HVAC systems did not appear to converge
   **   ~~~   ** Air System Named = CENTRAL SYSTEM did not converge for mass flow rate
   **   ~~~   ** Check values should be zero. Most Recent values listed first.
   **   ~~~   ** Demand-to-Supply interface mass flow rate check value iteration history trace: 4.971626E-002,4.971626E-002,4.971626E-002,4.971626E-002,4.971626E-002,4.971626E-002,4.971626E-002,4.971626E-002,4.971626E-002,4.971626E-002,
   **   ~~~   ** Supply-to-demand interface deck 1 mass flow rate check value iteration history trace: 4.971626E-002,4.971626E-002,4.971626E-002,4.971626E-002,4.971626E-002,4.971626E-002,4.971626E-002,4.971626E-002,4.971626E-002,4.971626E-002,
   **   ~~~   ** Air System Named = CENTRAL SYSTEM did not converge for energy
   **   ~~~   ** Check values should be zero. Most Recent values listed first.
   **   ~~~   ** Demand-to-Supply interface energy check value iteration history trace: 975.853519,975.853519,975.853519,975.853519,975.853519,975.853519,975.853519,975.853519,975.853519,975.853519,
   **   ~~~   ** Supply-to-demand interface deck 1 energy check value iteration history trace: 1759.110987,1759.110986,1759.110986,1759.110986,1759.110986,1759.110986,1759.110986,1759.110986,1759.110986,1759.110986,
   ** Warning ** SimHVAC: Maximum iterations (20) exceeded for all HVAC loops, at ANNUAL, 03/28 11:15 - 11:30
   **   ~~~   ** The solution for one or more of the Air Loop HVAC systems did not appear to converge
   **   ~~~   ** Air System Named = CENTRAL SYSTEM did not converge for mass flow rate
   **   ~~~   ** Check values should be zero. Most Recent values listed first.
   **   ~~~   ** Demand-to-Supply interface mass flow rate check value iteration history trace: 6.175779E-002,6.175779E-002,6.175779E-002,6.175779E-002,6.175779E-002,6.175779E-002,6.175779E-002,6.175779E-002,6.175779E-002,6.175779E-002,
   **   ~~~   ** Supply-to-demand interface deck 1 mass flow rate check value iteration history trace: 6.175779E-002,6.175779E-002,6.175779E-002,6.175779E-002,6.175779E-002,6.175779E-002,6.175779E-002,6.175779E-002,6.175779E-002,6.175779E-002,
   **   ~~~   ** Air System Named = CENTRAL SYSTEM did not converge for energy
   **   ~~~   ** Check values should be zero. Most Recent values listed first.
   **   ~~~   ** Demand-to-Supply interface energy check value iteration history trace: 1221.969392,1221.969392,1221.969392,1221.969392,1221.969391,1221.969391,1221.969391,1221.969391,1221.969390,1221.969390,
   **   ~~~   ** Supply-to-demand interface deck 1 energy check value iteration history trace: 2238.359693,2238.359693,2238.359692,2238.359692,2238.359691,2238.359691,2238.359690,2238.359690,2238.359689,2238.359689,
   **   ~~~   ** Node named ZONE INLET NODE shows oscillating temperatures across iterations with a repeated value of 36.069454
   **   ~~~   ** Node named ZONE INLET NODE temperature [C] iteration history trace (most recent first): 36.069454,36.069453,36.069453,36.069453,36.069453,36.069452,36.069452,36.069452,36.069451,36.069451,
   ** Warning ** SimHVAC: Maximum iterations (20) exceeded for all HVAC loops, at ANNUAL, 04/03 08:18 - 08:21
   **   ~~~   ** The solution for one or more of the Air Loop HVAC systems did not appear to converge
   **   ~~~   ** Air System Named = CENTRAL SYSTEM did not converge for mass flow rate
   **   ~~~   ** Check values should be zero. Most Recent values listed first.
   **   ~~~   ** Demand-to-Supply interface mass flow rate check value iteration history trace: 4.929157E-002,4.929157E-002,4.929157E-002,4.929157E-002,4.929157E-002,4.929157E-002,4.929157E-002,4.929157E-002,4.929157E-002,4.929157E-002,
   **   ~~~   ** Supply-to-demand interface deck 1 mass flow rate check value iteration history trace: 4.929157E-002,4.929157E-002,4.929157E-002,4.929157E-002,4.929157E-002,4.929157E-002,4.929157E-002,4.929157E-002,4.929157E-002,4.929157E-002,
   **   ~~~   ** Air System Named = CENTRAL SYSTEM did not converge for energy
   **   ~~~   ** Check values should be zero. Most Recent values listed first.
   **   ~~~   ** Demand-to-Supply interface energy check value iteration history trace: 973.273913,973.273913,973.273913,973.273913,973.273913,973.273913,973.273913,973.273913,973.273913,973.273913,
   **   ~~~   ** Supply-to-demand interface deck 1 energy check value iteration history trace: 1870.987404,1870.987404,1870.987404,1870.987403,1870.987403,1870.987403,1870.987403,1870.987403,1870.987403,1870.987403,
   ** Warning ** SimHVAC: Maximum iterations (20) exceeded for all HVAC loops, at ANNUAL, 04/23 23:38 - 23:45
   **   ~~~   ** The solution for one or more of the Air Loop HVAC systems did not appear to converge
   **   ~~~   ** Air System Named = CENTRAL SYSTEM did not converge for mass flow rate
   **   ~~~   ** Check values should be zero. Most Recent values listed first.
   **   ~~~   ** Demand-to-Supply interface mass flow rate check value iteration history trace: 0.166628,0.166628,0.166628,0.166628,0.166628,0.166628,0.166628,0.166628,0.166628,0.166628,
   **   ~~~   ** Supply-to-demand interface deck 1 mass flow rate check value iteration history trace: 0.166628,0.166628,0.166628,0.166628,0.166628,0.166628,0.166628,0.166628,0.166628,0.166628,
   **   ~~~   ** Air System Named = CENTRAL SYSTEM did not converge for energy
   **   ~~~   ** Check values should be zero. Most Recent values listed first.
   **   ~~~   ** Demand-to-Supply interface energy check value iteration history trace: 4215.678497,4215.678498,4215.678498,4215.678499,4215.678499,4215.678500,4215.678500,4215.678501,4215.678501,4215.678502,
   **   ~~~   ** Supply-to-demand interface deck 1 energy check value iteration history trace: 1808.907880,1808.907880,1808.907880,1808.907880,1808.907881,1808.907881,1808.907881,1808.907881,1808.907881,1808.907882,
   ** Warning ** SimHVAC: Maximum iterations (20) exceeded for all HVAC loops, at ANNUAL, 10/11 09:15 - 09:22
   **   ~~~   ** The solution for one or more of the Air Loop HVAC systems did not appear to converge
   **   ~~~   ** Air System Named = CENTRAL SYSTEM did not converge for mass flow rate
   **   ~~~   ** Check values should be zero. Most Recent values listed first.
   **   ~~~   ** Demand-to-Supply interface mass flow rate check value iteration history trace: 5.245597E-002,5.245597E-002,5.245597E-002,5.245597E-002,5.245597E-002,5.245597E-002,5.245597E-002,5.245597E-002,5.245597E-002,5.245597E-002,
   **   ~~~   ** Supply-to-demand interface deck 1 mass flow rate check value iteration history trace: 5.245597E-002,5.245597E-002,5.245597E-002,5.245597E-002,5.245597E-002,5.245597E-002,5.245597E-002,5.245597E-002,5.245597E-002,5.245597E-002,
   **   ~~~   ** Air System Named = CENTRAL SYSTEM did not converge for energy
   **   ~~~   ** Check values should be zero. Most Recent values listed first.
   **   ~~~   ** Demand-to-Supply interface energy check value iteration history trace: 1023.656666,1023.656666,1023.656666,1023.656666,1023.656666,1023.656666,1023.656666,1023.656666,1023.656666,1023.656666,
   **   ~~~   ** Supply-to-demand interface deck 1 energy check value iteration history trace: 1904.893934,1904.893934,1904.893934,1904.893934,1904.893934,1904.893934,1904.893934,1904.893934,1904.893934,1904.893933,
   ** Warning ** SimHVAC: Maximum iterations (20) exceeded for all HVAC loops, at ANNUAL, 11/06 08:11 - 08:15
   **   ~~~   ** The solution for one or more of the Air Loop HVAC systems did not appear to converge
   **   ~~~   ** Air System Named = CENTRAL SYSTEM did not converge for mass flow rate
   **   ~~~   ** Check values should be zero. Most Recent values listed first.
   **   ~~~   ** Demand-to-Supply interface mass flow rate check value iteration history trace: 5.418798E-002,5.418798E-002,5.418798E-002,5.418798E-002,5.418798E-002,5.418798E-002,5.418798E-002,5.418798E-002,5.418798E-002,5.418798E-002,
   **   ~~~   ** Supply-to-demand interface deck 1 mass flow rate check value iteration history trace: 5.418798E-002,5.418798E-002,5.418798E-002,5.418798E-002,5.418798E-002,5.418798E-002,5.418798E-002,5.418798E-002,5.418798E-002,5.418798E-002,
   **   ~~~   ** Air System Named = CENTRAL SYSTEM did not converge for energy
   **   ~~~   ** Check values should be zero. Most Recent values listed first.
   **   ~~~   ** Demand-to-Supply interface energy check value iteration history trace: 1064.709465,1064.709464,1064.709464,1064.709464,1064.709464,1064.709464,1064.709464,1064.709464,1064.709464,1064.709464,
   **   ~~~   ** Supply-to-demand interface deck 1 energy check value iteration history trace: 1955.311298,1955.311298,1955.311298,1955.311298,1955.311298,1955.311298,1955.311298,1955.311297,1955.311297,1955.311297,
   ** Warning ** SimHVAC: Maximum iterations (20) exceeded for all HVAC loops, at ANNUAL, 11/06 12:00 - 12:15
   **   ~~~   ** The solution for one or more of the Air Loop HVAC systems did not appear to converge
   **   ~~~   ** Air System Named = CENTRAL SYSTEM did not converge for mass flow rate
   **   ~~~   ** Check values should be zero. Most Recent values listed first.
   **   ~~~   ** Demand-to-Supply interface mass flow rate check value iteration history trace: 5.654209E-002,5.654209E-002,5.654209E-002,5.654209E-002,5.654209E-002,5.654209E-002,5.654209E-002,5.654209E-002,5.654209E-002,5.654209E-002,
   **   ~~~   ** Supply-to-demand interface deck 1 mass flow rate check value iteration history trace: 5.654209E-002,5.654209E-002,5.654209E-002,5.654209E-002,5.654209E-002,5.654209E-002,5.654209E-002,5.654209E-002,5.654209E-002,5.654209E-002,
   **   ~~~   ** Air System Named = CENTRAL SYSTEM did not converge for energy
   **   ~~~   ** Check values should be zero. Most Recent values listed first.
   **   ~~~   ** Demand-to-Supply interface energy check value iteration history trace: 1346.349247,1346.349247,1346.349247,1346.349247,1346.349247,1346.349247,1346.349247,1346.349247,1346.349247,1346.349247,
   **   ~~~   ** Supply-to-demand interface deck 1 energy check value iteration history trace: 464.707159,464.707159,464.707159,464.707159,464.707159,464.707159,464.707159,464.707159,464.707159,464.707159,
   ************* Simulation Error Summary *************
   ** Warning ** The following Report Variables were requested but not generated -- check.rdd file
   **   ~~~   ** Either the IDF did not contain these elements, the variable name is misspelled,
   **   ~~~   ** or the requested variable is an advanced output which requires Output : Diagnostics, DisplayAdvancedReportVariables;
   ************* Key=*, VarName=BASEBOARD TOTAL HEATING ENERGY, Frequency=
   ************* Key=*, VarName=WATER HEATER NATURALGAS ENERGY, Frequency=
   ************* Key=*, VarName=COOLING COIL TOTAL HEATING ENERGY, Frequency=
   ************* There are 34 unused schedules in input.
   ************* There are 388 unused week schedules in input.
   ************* There are 396 unused day schedules in input.
   ************* Use Output:Diagnostics,DisplayUnusedSchedules; to see them.
   *************
   ************* ===== Recurring Error Summary =====
   ************* The following recurring error messages occurred.
   *************
   *************  ** Warning ** "TOTAL HOT WATER LOAD" - Target water temperature should be less than or equal to the hot water temperature error continues...
   *************  **   ~~~   **   This error occurred 180277 total times;
   *************  **   ~~~   **   during Warmup 0 times;
   *************  **   ~~~   **   during Sizing 0 times.
   *************  **   ~~~   **   Max=11.594547  Min=9.777165E-004
   *************
   *************  ** Warning ** SimHVAC: Exceeding Maximum iterations for all HVAC loops, during ANNUAL continues
   *************  **   ~~~   **   This error occurred 6 total times;
   *************  **   ~~~   **   during Warmup 0 times;
   *************  **   ~~~   **   during Sizing 0 times.
   *************
   *************
   ************* ===== Final Error Summary =====
   ************* The following error categories occurred.  Consider correcting or noting.
   ************* Nominally Unused Constructions
   ************* ..The nominally unused constructions warning is provided to alert you to potential conditions that can cause
   ************* ..extra time during simulation. Each construction is calculated by the algorithm indicated in the HeatBalanceAlgorithm
   ************* ..object. You may remove the constructions indicated (when you use the DisplayExtraWarnings option).
   *************
   ************* EnergyPlus Warmup Error Summary. During Warmup: 1 Warning; 0 Severe Errors.
   ************* EnergyPlus Sizing Error Summary. During Sizing: 4 Warning; 0 Severe Errors.
   ************* EnergyPlus Completed Successfully-- 180315 Warning; 0 Severe Errors; Elapsed Time=00hr 01min 45.14sec
