Program Version,EnergyPlus, Version 22.2.0-c249759bad, YMD=2023.09.01 19:58,
   ************* Beginning Zone Sizing Calculations
   ** Warning ** ProcessScheduleInput: Schedule:Constant="ALWAYS ON DISCRETE", Schedule Type Limits Name="ONOFF" not found -- will not be validated
   ** Warning ** Foundation:Kiva="KIVA FOUNDATION", no Interior Horizontal Insulation Material Name defined
   **   ~~~   ** Interior Horizontal Insulation Depth will not be used.
   ** Warning ** CheckUsedConstructions: There are 15 nominally unused constructions in input.
   **   ~~~   ** Each Unused construction is shown.
   ************* Construction=INTERIOR FLOOR
   ************* Construction=INTERIOR WINDOW
   ************* Construction=EXTERIOR DOOR
   ************* Construction=INTERIOR DOOR
   ************* Construction=GABLE CONSTRUCTION
   ************* Construction=CRAWL_FLOOR
   ************* Construction=INSULATED PIPE
   ************* Construction=PLAIN PIPE
   ************* Construction=TDD PIPE
   ************* Construction=TDD DOME
   ************* Construction=TDD DIFFUSER
   ************* Construction=CRAWL WALL
   ************* Construction=CEILING-FLOOR-LAYER
   ************* Construction=SLAB CONSTRUCTION W FULL R10 INSULATION
   ************* Construction=SLAB CONSTRUCTION W FULL R5 INSULATION
   ** Warning ** GetDXCoils: Coil:Heating:DX:SingleSpeed="DX_HEATING_COIL" curve values
   **   ~~~   ** ... Defrost Energy Input Ratio Function of Temperature Curve Name = DEFROSTEIR output is not equal to 1.0 (+ or - 10%) at rated conditions.
   **   ~~~   ** ... Curve output at rated conditions = 0.152
   ************* Beginning System Sizing Calculations
   ************* Beginning Plant Sizing Calculations
   ** Warning ** SizeDXCoil Coil:Cooling:DX:SingleSpeed DX_COOLING_COIL
   **   ~~~   ** ...Gross Rated Total Cooling Capacity [W] will be limited by the maximum rated volume flow per rated total capacity ratio.
   **   ~~~   ** ...DX coil volume flow rate ( m3/s ) = 0.482656
   **   ~~~   ** ...Requested capacity ( W ) = 7622.896
   **   ~~~   ** ...Requested flow/capacity ratio ( m3/s/W ) = 6.331E-005
   **   ~~~   ** ...Maximum flow/capacity ratio ( m3/s/W ) = 6.041E-005
   **   ~~~   ** ...Adjusted capacity ( W ) = 7989.683
   ** Warning ** Coil:WaterHeating:AirToWaterHeatPump:Wrapped "HEAT PUMP WATER HEATER EVAPORATOR": Rated air volume flow rate per watt of rated total water heating capacity is out of range
   **   ~~~   ** Min Rated Vol Flow Per Watt=[4.027E-005], Rated Vol Flow Per Watt=[1.510E-004], Max Rated Vol Flow Per Watt=[8.056E-005]. See Input-Output Reference Manual for valid range.
   ************* SizeFan: : Potential issue with equipment sizing for Fan:OnOff HEAT PUMP WATER HEATER FAN
   **   ~~~   ** User-Specified Maximum Flow Rate [m3/s] = 0.22653
   **   ~~~   ** differs from Design Size Maximum Flow Rate [m3/s] = 7.55250E-002
   **   ~~~   ** This may, or may not, indicate mismatched component sizes.
   **   ~~~   ** Verify that the value entered is intended and is consistent with other components.
   ** Warning ** Water heater = WATER HEATER TANK:  Recovery Efficiency and Energy Factor could not be calculated during the test for standard ratings
   **   ~~~   ** Setpoint was never recovered and/or heater never turned on
   ** Warning ** Check input. Pump nominal power or motor efficiency is set to 0, for pump=MAINS PRESSURE
   ** Warning ** Output:Meter: invalid Key Name="ELECTRIC_RANGE:INTERIOREQUIPMENT:ELECTRICITY" - not found.
   ** Warning ** Output:Meter: invalid Key Name="ELECTRIC_DRYER:INTERIOREQUIPMENT:ELECTRICITY" - not found.
   ** Warning ** Output:Meter: invalid Key Name="HEATRECOVERY:ELECTRICITY" - not found.
   ** Warning ** Output:Meter: invalid Key Name="HEATING:NATURALGAS" - not found.
   ** Warning ** Output:Meter: invalid Key Name="WATERSYSTEMS:NATURALGAS" - not found.
   ** Warning ** Output:Meter: invalid Key Name="PROPANE:FACILITY" - not found.
   ** Warning ** Output:Meter: invalid Key Name="HEATING:PROPANE" - not found.
   ************* Testing Individual Branch Integrity
   ************* All Branches passed integrity testing
   ************* Testing Individual Supply Air Path Integrity
   ************* All Supply Air Paths passed integrity testing
   ************* Testing Individual Return Air Path Integrity
   ************* All Return Air Paths passed integrity testing
   ************* No node connection errors were found.
   ************* Beginning Simulation
   ** Warning ** AirflowNetwork::Solver::validate_distribution: Heat pump water heater is simulated along with an AirflowNetwork but is not included in the AirflowNetwork.
   ** Warning ** CalcEquipmentFlowRates: "TOTAL HOT WATER LOAD" - Target water temperature is greater than the hot water temperature by (4.76 C)
   **   ~~~   **  Environment=EXTREME_WINTER, at Simulation time=02/15 07:00 - 07:15
   **   ~~~   ** ...target water temperature     = 53.33 C
   **   ~~~   ** ...hot water temperature        = 48.57 C
   **   ~~~   ** ...Target water temperature should be less than or equal to the hot water temperature. Verify temperature setpoints and schedules.
   ** Warning ** SimHVAC: Maximum iterations (20) exceeded for all HVAC loops, at EXTREME_WINTER, 02/15 21:00 - 21:15
   **   ~~~   ** The solution for one or more of the Air Loop HVAC systems did not appear to converge
   **   ~~~   ** Air System Named = CENTRAL SYSTEM did not converge for mass flow rate
   **   ~~~   ** Check values should be zero. Most Recent values listed first.
   **   ~~~   ** Demand-to-Supply interface mass flow rate check value iteration history trace: 6.613707E-002,6.613707E-002,6.613707E-002,6.613707E-002,6.613707E-002,6.613707E-002,6.613707E-002,6.613707E-002,6.613707E-002,6.613707E-002,
   **   ~~~   ** Supply-to-demand interface deck 1 mass flow rate check value iteration history trace: 6.613707E-002,6.613707E-002,6.613707E-002,6.613707E-002,6.613707E-002,6.613707E-002,6.613707E-002,6.613707E-002,6.613707E-002,6.613707E-002,
   **   ~~~   ** Air System Named = CENTRAL SYSTEM did not converge for energy
   **   ~~~   ** Check values should be zero. Most Recent values listed first.
   **   ~~~   ** Demand-to-Supply interface energy check value iteration history trace: 1288.806074,1288.806074,1288.806074,1288.806074,1288.806074,1288.806074,1288.806074,1288.806073,1288.806073,1288.806073,
   **   ~~~   ** Supply-to-demand interface deck 1 energy check value iteration history trace: 2224.627888,2224.627888,2224.627887,2224.627887,2224.627887,2224.627887,2224.627887,2224.627887,2224.627887,2224.627887,
   ** Warning ** SimHVAC: Maximum iterations (20) exceeded for all HVAC loops, at ANNUAL, 01/01 07:45 - 07:50
   **   ~~~   ** The solution for one or more of the Air Loop HVAC systems did not appear to converge
   **   ~~~   ** Air System Named = CENTRAL SYSTEM did not converge for mass flow rate
   **   ~~~   ** Check values should be zero. Most Recent values listed first.
   **   ~~~   ** Demand-to-Supply interface mass flow rate check value iteration history trace: 7.128986E-002,7.128986E-002,7.128986E-002,7.128986E-002,7.128986E-002,7.128986E-002,7.128986E-002,7.128986E-002,7.128986E-002,7.128986E-002,
   **   ~~~   ** Supply-to-demand interface deck 1 mass flow rate check value iteration history trace: 7.128986E-002,7.128986E-002,7.128986E-002,7.128986E-002,7.128986E-002,7.128986E-002,7.128986E-002,7.128986E-002,7.128986E-002,7.128986E-002,
   **   ~~~   ** Air System Named = CENTRAL SYSTEM did not converge for energy
   **   ~~~   ** Check values should be zero. Most Recent values listed first.
   **   ~~~   ** Demand-to-Supply interface energy check value iteration history trace: 1412.579438,1412.579438,1412.579438,1412.579438,1412.579438,1412.579438,1412.579438,1412.579438,1412.579438,1412.579438,
   **   ~~~   ** Supply-to-demand interface deck 1 energy check value iteration history trace: 2243.962911,2243.962911,2243.962910,2243.962910,2243.962910,2243.962910,2243.962910,2243.962910,2243.962910,2243.962910,
   ** Warning ** SimHVAC: Maximum iterations (20) exceeded for all HVAC loops, at ANNUAL, 01/01 08:00 - 08:15
   **   ~~~   ** The solution for one or more of the Air Loop HVAC systems did not appear to converge
   **   ~~~   ** Air System Named = CENTRAL SYSTEM did not converge for mass flow rate
   **   ~~~   ** Check values should be zero. Most Recent values listed first.
   **   ~~~   ** Demand-to-Supply interface mass flow rate check value iteration history trace: 4.324687E-002,4.324687E-002,4.324687E-002,4.324687E-002,4.324687E-002,4.324687E-002,4.324687E-002,4.324687E-002,4.324687E-002,4.324687E-002,
   **   ~~~   ** Supply-to-demand interface deck 1 mass flow rate check value iteration history trace: 4.324687E-002,4.324687E-002,4.324687E-002,4.324687E-002,4.324687E-002,4.324687E-002,4.324687E-002,4.324687E-002,4.324687E-002,4.324687E-002,
   **   ~~~   ** Air System Named = CENTRAL SYSTEM did not converge for energy
   **   ~~~   ** Check values should be zero. Most Recent values listed first.
   **   ~~~   ** Demand-to-Supply interface energy check value iteration history trace: 853.175350,853.175350,853.175350,853.175350,853.175350,853.175349,853.175349,853.175349,853.175349,853.175349,
   **   ~~~   ** Supply-to-demand interface deck 1 energy check value iteration history trace: 1435.765785,1435.765785,1435.765785,1435.765785,1435.765784,1435.765784,1435.765784,1435.765784,1435.765784,1435.765784,
   ** Warning ** SimHVAC: Maximum iterations (20) exceeded for all HVAC loops, at ANNUAL, 01/09 09:30 - 09:38
   **   ~~~   ** The solution for one or more of the Air Loop HVAC systems did not appear to converge
   **   ~~~   ** Air System Named = CENTRAL SYSTEM did not converge for mass flow rate
   **   ~~~   ** Check values should be zero. Most Recent values listed first.
   **   ~~~   ** Demand-to-Supply interface mass flow rate check value iteration history trace: 6.112958E-002,6.112958E-002,6.112958E-002,6.112958E-002,6.112958E-002,6.112958E-002,6.112958E-002,6.112958E-002,6.112958E-002,6.112958E-002,
   **   ~~~   ** Supply-to-demand interface deck 1 mass flow rate check value iteration history trace: 6.112958E-002,6.112958E-002,6.112958E-002,6.112958E-002,6.112958E-002,6.112958E-002,6.112958E-002,6.112958E-002,6.112958E-002,6.112958E-002,
   **   ~~~   ** Air System Named = CENTRAL SYSTEM did not converge for energy
   **   ~~~   ** Check values should be zero. Most Recent values listed first.
   **   ~~~   ** Demand-to-Supply interface energy check value iteration history trace: 1207.424140,1207.424140,1207.424140,1207.424140,1207.424140,1207.424140,1207.424140,1207.424140,1207.424140,1207.424140,
   **   ~~~   ** Supply-to-demand interface deck 1 energy check value iteration history trace: 2137.610258,2137.610258,2137.610258,2137.610258,2137.610258,2137.610258,2137.610258,2137.610258,2137.610258,2137.610258,
   ** Warning ** SimHVAC: Maximum iterations (20) exceeded for all HVAC loops, at ANNUAL, 04/01 06:23 - 06:30
   **   ~~~   ** The solution for one or more of the Air Loop HVAC systems did not appear to converge
   **   ~~~   ** Air System Named = CENTRAL SYSTEM did not converge for mass flow rate
   **   ~~~   ** Check values should be zero. Most Recent values listed first.
   **   ~~~   ** Demand-to-Supply interface mass flow rate check value iteration history trace: 7.058598E-002,7.058598E-002,7.058598E-002,7.058598E-002,7.058598E-002,7.058598E-002,7.058598E-002,7.058598E-002,7.058598E-002,7.058598E-002,
   **   ~~~   ** Supply-to-demand interface deck 1 mass flow rate check value iteration history trace: 7.058598E-002,7.058598E-002,7.058598E-002,7.058598E-002,7.058598E-002,7.058598E-002,7.058598E-002,7.058598E-002,7.058598E-002,7.058598E-002,
   **   ~~~   ** Air System Named = CENTRAL SYSTEM did not converge for energy
   **   ~~~   ** Check values should be zero. Most Recent values listed first.
   **   ~~~   ** Demand-to-Supply interface energy check value iteration history trace: 1646.675989,1646.675990,1646.675990,1646.675991,1646.675991,1646.675992,1646.675992,1646.675993,1646.675993,1646.675994,
   **   ~~~   ** Supply-to-demand interface deck 1 energy check value iteration history trace: 889.932444,889.932444,889.932444,889.932444,889.932445,889.932445,889.932445,889.932446,889.932446,889.932446,
   ** Warning ** SimHVAC: Maximum iterations (20) exceeded for all HVAC loops, at ANNUAL, 04/01 23:30 - 23:45
   **   ~~~   ** The solution for one or more of the Air Loop HVAC systems did not appear to converge
   **   ~~~   ** Air System Named = CENTRAL SYSTEM did not converge for mass flow rate
   **   ~~~   ** Check values should be zero. Most Recent values listed first.
   **   ~~~   ** Demand-to-Supply interface mass flow rate check value iteration history trace: 6.871273E-002,6.871273E-002,6.871273E-002,6.871273E-002,6.871273E-002,6.871273E-002,6.871273E-002,6.871273E-002,6.871273E-002,6.871273E-002,
   **   ~~~   ** Supply-to-demand interface deck 1 mass flow rate check value iteration history trace: 6.871273E-002,6.871273E-002,6.871273E-002,6.871273E-002,6.871273E-002,6.871273E-002,6.871273E-002,6.871273E-002,6.871273E-002,6.871273E-002,
   **   ~~~   ** Air System Named = CENTRAL SYSTEM did not converge for energy
   **   ~~~   ** Check values should be zero. Most Recent values listed first.
   **   ~~~   ** Demand-to-Supply interface energy check value iteration history trace: 1697.780958,1697.780958,1697.780959,1697.780959,1697.780959,1697.780960,1697.780960,1697.780961,1697.780961,1697.780961,
   **   ~~~   ** Supply-to-demand interface deck 1 energy check value iteration history trace: 813.451615,813.451615,813.451615,813.451615,813.451615,813.451616,813.451616,813.451616,813.451616,813.451616,
   ** Warning ** SimHVAC: Maximum iterations (20) exceeded for all HVAC loops, at ANNUAL, 04/02 07:15 - 07:19
   **   ~~~   ** The solution for one or more of the Air Loop HVAC systems did not appear to converge
   **   ~~~   ** Air System Named = CENTRAL SYSTEM did not converge for mass flow rate
   **   ~~~   ** Check values should be zero. Most Recent values listed first.
   **   ~~~   ** Demand-to-Supply interface mass flow rate check value iteration history trace: 7.343364E-002,7.343364E-002,7.343364E-002,7.343364E-002,7.343364E-002,7.343364E-002,7.343364E-002,7.343364E-002,7.343364E-002,7.343364E-002,
   **   ~~~   ** Supply-to-demand interface deck 1 mass flow rate check value iteration history trace: 7.343364E-002,7.343364E-002,7.343364E-002,7.343364E-002,7.343364E-002,7.343364E-002,7.343364E-002,7.343364E-002,7.343364E-002,7.343364E-002,
   **   ~~~   ** Air System Named = CENTRAL SYSTEM did not converge for energy
   **   ~~~   ** Check values should be zero. Most Recent values listed first.
   **   ~~~   ** Demand-to-Supply interface energy check value iteration history trace: 1721.736645,1721.736645,1721.736645,1721.736645,1721.736646,1721.736646,1721.736646,1721.736646,1721.736646,1721.736646,
   **   ~~~   ** Supply-to-demand interface deck 1 energy check value iteration history trace: 923.480486,923.480486,923.480486,923.480486,923.480486,923.480486,923.480486,923.480486,923.480486,923.480487,
   ** Warning ** SimHVAC: Maximum iterations (20) exceeded for all HVAC loops, at ANNUAL, 04/05 01:30 - 01:38
   **   ~~~   ** The solution for one or more of the Air Loop HVAC systems did not appear to converge
   **   ~~~   ** Air System Named = CENTRAL SYSTEM did not converge for mass flow rate
   **   ~~~   ** Check values should be zero. Most Recent values listed first.
   **   ~~~   ** Demand-to-Supply interface mass flow rate check value iteration history trace: 1.701459E-002,1.701459E-002,1.701459E-002,1.701459E-002,1.701459E-002,1.701459E-002,1.701459E-002,1.701459E-002,1.701459E-002,1.701459E-002,
   **   ~~~   ** Supply-to-demand interface deck 1 mass flow rate check value iteration history trace: 1.701459E-002,1.701459E-002,1.701459E-002,1.701459E-002,1.701459E-002,1.701459E-002,1.701459E-002,1.701459E-002,1.701459E-002,1.701459E-002,
   **   ~~~   ** Air System Named = CENTRAL SYSTEM did not converge for energy
   **   ~~~   ** Check values should be zero. Most Recent values listed first.
   **   ~~~   ** Demand-to-Supply interface energy check value iteration history trace: 417.924384,417.924384,417.924384,417.924384,417.924385,417.924385,417.924385,417.924385,417.924385,417.924385,
   **   ~~~   ** Supply-to-demand interface deck 1 energy check value iteration history trace: 207.347179,207.347179,207.347179,207.347179,207.347179,207.347179,207.347179,207.347179,207.347179,207.347179,
   ** Warning ** SimHVAC: Maximum iterations (20) exceeded for all HVAC loops, at ANNUAL, 04/13 09:45 - 10:00
   **   ~~~   ** The solution for one or more of the Air Loop HVAC systems did not appear to converge
   **   ~~~   ** Air System Named = CENTRAL SYSTEM did not converge for mass flow rate
   **   ~~~   ** Check values should be zero. Most Recent values listed first.
   **   ~~~   ** Demand-to-Supply interface mass flow rate check value iteration history trace: 5.626010E-002,5.626010E-002,5.626010E-002,5.626010E-002,5.626010E-002,5.626010E-002,5.626010E-002,5.626010E-002,5.626010E-002,5.626010E-002,
   **   ~~~   ** Supply-to-demand interface deck 1 mass flow rate check value iteration history trace: 5.626010E-002,5.626010E-002,5.626010E-002,5.626010E-002,5.626010E-002,5.626010E-002,5.626010E-002,5.626010E-002,5.626010E-002,5.626010E-002,
   **   ~~~   ** Air System Named = CENTRAL SYSTEM did not converge for energy
   **   ~~~   ** Check values should be zero. Most Recent values listed first.
   **   ~~~   ** Demand-to-Supply interface energy check value iteration history trace: 1333.683391,1333.683391,1333.683391,1333.683392,1333.683392,1333.683392,1333.683392,1333.683392,1333.683392,1333.683393,
   **   ~~~   ** Supply-to-demand interface deck 1 energy check value iteration history trace: 691.906072,691.906072,691.906072,691.906073,691.906073,691.906073,691.906073,691.906073,691.906073,691.906073,
   ** Warning ** SimHVAC: Maximum iterations (20) exceeded for all HVAC loops, at ANNUAL, 12/03 10:26 - 10:28
   **   ~~~   ** The solution for one or more of the Air Loop HVAC systems did not appear to converge
   **   ~~~   ** Air System Named = CENTRAL SYSTEM did not converge for mass flow rate
   **   ~~~   ** Check values should be zero. Most Recent values listed first.
   **   ~~~   ** Demand-to-Supply interface mass flow rate check value iteration history trace: 0.292065,0.292065,0.292065,0.292065,0.292065,0.292065,0.292065,0.292065,0.292065,0.292065,
   **   ~~~   ** Supply-to-demand interface deck 1 mass flow rate check value iteration history trace: 0.292065,0.292065,0.292065,0.292065,0.292065,0.292065,0.292065,0.292065,0.292065,0.292065,
   **   ~~~   ** Air System Named = CENTRAL SYSTEM did not converge for energy
   **   ~~~   ** Check values should be zero. Most Recent values listed first.
   **   ~~~   ** Demand-to-Supply interface energy check value iteration history trace: 6954.098289,6954.098290,6954.098290,6954.098291,6954.098291,6954.098291,6954.098292,6954.098292,6954.098293,6954.098293,
   **   ~~~   ** Supply-to-demand interface deck 1 energy check value iteration history trace: 3515.775809,3515.775809,3515.775810,3515.775810,3515.775810,3515.775810,3515.775810,3515.775811,3515.775811,3515.775811,
   ** Warning ** SimHVAC: Maximum iterations (20) exceeded for all HVAC loops, at ANNUAL, 12/04 10:36 - 10:39
   **   ~~~   ** The solution for one or more of the Air Loop HVAC systems did not appear to converge
   **   ~~~   ** Air System Named = CENTRAL SYSTEM did not converge for mass flow rate
   **   ~~~   ** Check values should be zero. Most Recent values listed first.
   **   ~~~   ** Demand-to-Supply interface mass flow rate check value iteration history trace: 0.145215,0.145215,0.145215,0.145215,0.145215,0.145215,0.145215,0.145215,0.145215,0.145215,
   **   ~~~   ** Supply-to-demand interface deck 1 mass flow rate check value iteration history trace: 0.145215,0.145215,0.145215,0.145215,0.145215,0.145215,0.145215,0.145215,0.145215,0.145215,
   **   ~~~   ** Air System Named = CENTRAL SYSTEM did not converge for energy
   **   ~~~   ** Check values should be zero. Most Recent values listed first.
   **   ~~~   ** Demand-to-Supply interface energy check value iteration history trace: 3442.480581,3442.480582,3442.480582,3442.480583,3442.480583,3442.480584,3442.480584,3442.480585,3442.480585,3442.480586,
   **   ~~~   ** Supply-to-demand interface deck 1 energy check value iteration history trace: 1398.576351,1398.576352,1398.576352,1398.576352,1398.576352,1398.576352,1398.576353,1398.576353,1398.576353,1398.576353,
   ** Warning ** SimHVAC: Maximum iterations (20) exceeded for all HVAC loops, at ANNUAL, 12/04 10:51 - 10:54
   **   ~~~   ** The solution for one or more of the Air Loop HVAC systems did not appear to converge
   **   ~~~   ** Air System Named = CENTRAL SYSTEM did not converge for mass flow rate
   **   ~~~   ** Check values should be zero. Most Recent values listed first.
   **   ~~~   ** Demand-to-Supply interface mass flow rate check value iteration history trace: 0.190102,0.190102,0.190102,0.190102,0.190102,0.190102,0.190102,0.190102,0.190102,0.190102,
   **   ~~~   ** Supply-to-demand interface deck 1 mass flow rate check value iteration history trace: 0.190102,0.190102,0.190102,0.190102,0.190102,0.190102,0.190102,0.190102,0.190102,0.190102,
   **   ~~~   ** Air System Named = CENTRAL SYSTEM did not converge for energy
   **   ~~~   ** Check values should be zero. Most Recent values listed first.
   **   ~~~   ** Demand-to-Supply interface energy check value iteration history trace: 4511.265275,4511.265276,4511.265277,4511.265277,4511.265278,4511.265279,4511.265280,4511.265280,4511.265281,4511.265282,
   **   ~~~   ** Supply-to-demand interface deck 1 energy check value iteration history trace: 1841.219339,1841.219339,1841.219339,1841.219340,1841.219340,1841.219340,1841.219340,1841.219341,1841.219341,1841.219341,
   ** Warning ** SimHVAC: Maximum iterations (20) exceeded for all HVAC loops, at ANNUAL, 12/05 09:08 - 09:11
   **   ~~~   ** The solution for one or more of the Air Loop HVAC systems did not appear to converge
   **   ~~~   ** Air System Named = CENTRAL SYSTEM did not converge for mass flow rate
   **   ~~~   ** Check values should be zero. Most Recent values listed first.
   **   ~~~   ** Demand-to-Supply interface mass flow rate check value iteration history trace: 7.057602E-002,7.057602E-002,7.057602E-002,7.057602E-002,7.057602E-002,7.057602E-002,7.057602E-002,7.057602E-002,7.057602E-002,7.057602E-002,
   **   ~~~   ** Supply-to-demand interface deck 1 mass flow rate check value iteration history trace: 7.057602E-002,7.057602E-002,7.057602E-002,7.057602E-002,7.057602E-002,7.057602E-002,7.057602E-002,7.057602E-002,7.057602E-002,7.057602E-002,
   **   ~~~   ** Air System Named = CENTRAL SYSTEM did not converge for energy
   **   ~~~   ** Check values should be zero. Most Recent values listed first.
   **   ~~~   ** Demand-to-Supply interface energy check value iteration history trace: 1394.180529,1394.180529,1394.180529,1394.180529,1394.180529,1394.180529,1394.180529,1394.180529,1394.180529,1394.180529,
   **   ~~~   ** Supply-to-demand interface deck 1 energy check value iteration history trace: 2427.020390,2427.020390,2427.020390,2427.020390,2427.020390,2427.020389,2427.020389,2427.020389,2427.020389,2427.020389,
   ************* Simulation Error Summary *************
   ** Warning ** The following Report Variables were requested but not generated -- check.rdd file
   **   ~~~   ** Either the IDF did not contain these elements, the variable name is misspelled,
   **   ~~~   ** or the requested variable is an advanced output which requires Output : Diagnostics, DisplayAdvancedReportVariables;
   ************* Key=*, VarName=BASEBOARD TOTAL HEATING ENERGY, Frequency=
   ************* Key=*, VarName=WATER HEATER NATURALGAS ENERGY, Frequency=
   ************* Key=*, VarName=COOLING COIL TOTAL HEATING ENERGY, Frequency=
   ************* There are 34 unused schedules in input.
   ************* There are 388 unused week schedules in input.
   ************* There are 396 unused day schedules in input.
   ************* Use Output:Diagnostics,DisplayUnusedSchedules; to see them.
   *************
   ************* ===== Recurring Error Summary =====
   ************* The following recurring error messages occurred.
   *************
   *************  ** Warning ** "TOTAL HOT WATER LOAD" - Target water temperature should be less than or equal to the hot water temperature error continues...
   *************  **   ~~~   **   This error occurred 233035 total times;
   *************  **   ~~~   **   during Warmup 0 times;
   *************  **   ~~~   **   during Sizing 0 times.
   *************  **   ~~~   **   Max=11.613145  Min=1.415253E-003
   *************
   *************
   ************* ===== Final Error Summary =====
   ************* The following error categories occurred.  Consider correcting or noting.
   ************* Nominally Unused Constructions
   ************* ..The nominally unused constructions warning is provided to alert you to potential conditions that can cause
   ************* ..extra time during simulation. Each construction is calculated by the algorithm indicated in the HeatBalanceAlgorithm
   ************* ..object. You may remove the constructions indicated (when you use the DisplayExtraWarnings option).
   *************
   ************* EnergyPlus Warmup Error Summary. During Warmup: 1 Warning; 0 Severe Errors.
   ************* EnergyPlus Sizing Error Summary. During Sizing: 4 Warning; 0 Severe Errors.
   ************* EnergyPlus Completed Successfully-- 233066 Warning; 0 Severe Errors; Elapsed Time=00hr 02min  2.82sec
