Program Version,EnergyPlus, Version 22.2.0-c249759bad, YMD=2023.09.01 20:12,
   ************* Beginning Zone Sizing Calculations
   ** Warning ** ProcessScheduleInput: Schedule:Constant="ALWAYS ON DISCRETE", Schedule Type Limits Name="ONOFF" not found -- will not be validated
   ** Warning ** Foundation:Kiva="KIVA FOUNDATION", no Interior Horizontal Insulation Material Name defined
   **   ~~~   ** Interior Horizontal Insulation Depth will not be used.
   ** Warning ** CheckUsedConstructions: There are 15 nominally unused constructions in input.
   **   ~~~   ** Each Unused construction is shown.
   ************* Construction=INTERIOR FLOOR
   ************* Construction=INTERIOR WINDOW
   ************* Construction=EXTERIOR DOOR
   ************* Construction=INTERIOR DOOR
   ************* Construction=GABLE CONSTRUCTION
   ************* Construction=CRAWL_FLOOR
   ************* Construction=INSULATED PIPE
   ************* Construction=PLAIN PIPE
   ************* Construction=TDD PIPE
   ************* Construction=TDD DOME
   ************* Construction=TDD DIFFUSER
   ************* Construction=CRAWL WALL
   ************* Construction=CEILING-FLOOR-LAYER
   ************* Construction=SLAB CONSTRUCTION W FULL R10 INSULATION
   ************* Construction=SLAB CONSTRUCTION W FULL R5 INSULATION
   ** Warning ** GetDXCoils: Coil:Heating:DX:SingleSpeed="DX_HEATING_COIL" curve values
   **   ~~~   ** ... Defrost Energy Input Ratio Function of Temperature Curve Name = DEFROSTEIR output is not equal to 1.0 (+ or - 10%) at rated conditions.
   **   ~~~   ** ... Curve output at rated conditions = 0.152
   ************* Beginning System Sizing Calculations
   ************* Beginning Plant Sizing Calculations
   ** Warning ** Coil:WaterHeating:AirToWaterHeatPump:Wrapped "HEAT PUMP WATER HEATER EVAPORATOR": Rated air volume flow rate per watt of rated total water heating capacity is out of range
   **   ~~~   ** Min Rated Vol Flow Per Watt=[4.027E-005], Rated Vol Flow Per Watt=[1.510E-004], Max Rated Vol Flow Per Watt=[8.056E-005]. See Input-Output Reference Manual for valid range.
   ************* SizeFan: : Potential issue with equipment sizing for Fan:OnOff HEAT PUMP WATER HEATER FAN
   **   ~~~   ** User-Specified Maximum Flow Rate [m3/s] = 0.22653
   **   ~~~   ** differs from Design Size Maximum Flow Rate [m3/s] = 7.55250E-002
   **   ~~~   ** This may, or may not, indicate mismatched component sizes.
   **   ~~~   ** Verify that the value entered is intended and is consistent with other components.
   ** Warning ** Water heater = WATER HEATER TANK:  Recovery Efficiency and Energy Factor could not be calculated during the test for standard ratings
   **   ~~~   ** Setpoint was never recovered and/or heater never turned on
   ** Warning ** Check input. Pump nominal power or motor efficiency is set to 0, for pump=MAINS PRESSURE
   ** Warning ** Output:Meter: invalid Key Name="ELECTRIC_RANGE:INTERIOREQUIPMENT:ELECTRICITY" - not found.
   ** Warning ** Output:Meter: invalid Key Name="ELECTRIC_DRYER:INTERIOREQUIPMENT:ELECTRICITY" - not found.
   ** Warning ** Output:Meter: invalid Key Name="HEATRECOVERY:ELECTRICITY" - not found.
   ** Warning ** Output:Meter: invalid Key Name="HEATING:NATURALGAS" - not found.
   ** Warning ** Output:Meter: invalid Key Name="WATERSYSTEMS:NATURALGAS" - not found.
   ** Warning ** Output:Meter: invalid Key Name="PROPANE:FACILITY" - not found.
   ** Warning ** Output:Meter: invalid Key Name="HEATING:PROPANE" - not found.
   ************* Testing Individual Branch Integrity
   ************* All Branches passed integrity testing
   ************* Testing Individual Supply Air Path Integrity
   ************* All Supply Air Paths passed integrity testing
   ************* Testing Individual Return Air Path Integrity
   ************* All Return Air Paths passed integrity testing
   ************* No node connection errors were found.
   ************* Beginning Simulation
   ** Warning ** AirflowNetwork::Solver::validate_distribution: Heat pump water heater is simulated along with an AirflowNetwork but is not included in the AirflowNetwork.
   ** Warning ** CalcEquipmentFlowRates: "TOTAL HOT WATER LOAD" - Target water temperature is greater than the hot water temperature by (4.74 C)
   **   ~~~   **  Environment=EXTREME_WINTER, at Simulation time=01/15 07:00 - 07:15
   **   ~~~   ** ...target water temperature     = 53.33 C
   **   ~~~   ** ...hot water temperature        = 48.59 C
   **   ~~~   ** ...Target water temperature should be less than or equal to the hot water temperature. Verify temperature setpoints and schedules.
   ** Warning ** SimHVAC: Maximum iterations (20) exceeded for all HVAC loops, at EXTREME_WINTER, 01/15 17:30 - 17:38
   **   ~~~   ** The solution for one or more of the Air Loop HVAC systems did not appear to converge
   **   ~~~   ** Air System Named = CENTRAL SYSTEM did not converge for mass flow rate
   **   ~~~   ** Check values should be zero. Most Recent values listed first.
   **   ~~~   ** Demand-to-Supply interface mass flow rate check value iteration history trace: 8.571026E-002,8.571026E-002,8.571026E-002,8.571026E-002,8.571026E-002,8.571026E-002,8.571026E-002,8.571026E-002,8.571026E-002,8.571026E-002,
   **   ~~~   ** Supply-to-demand interface deck 1 mass flow rate check value iteration history trace: 8.571026E-002,8.571026E-002,8.571026E-002,8.571026E-002,8.571026E-002,8.571026E-002,8.571026E-002,8.571026E-002,8.571026E-002,8.571026E-002,
   **   ~~~   ** Air System Named = CENTRAL SYSTEM did not converge for energy
   **   ~~~   ** Check values should be zero. Most Recent values listed first.
   **   ~~~   ** Demand-to-Supply interface energy check value iteration history trace: 1693.077271,1693.077271,1693.077271,1693.077271,1693.077270,1693.077270,1693.077270,1693.077270,1693.077270,1693.077270,
   **   ~~~   ** Supply-to-demand interface deck 1 energy check value iteration history trace: 2628.787000,2628.787000,2628.787000,2628.787000,2628.786999,2628.786999,2628.786999,2628.786999,2628.786999,2628.786999,
   ** Warning ** SimHVAC: Maximum iterations (20) exceeded for all HVAC loops, at EXTREME_WINTER, 01/16 12:00 - 12:08
   **   ~~~   ** The solution for one or more of the Air Loop HVAC systems did not appear to converge
   **   ~~~   ** Air System Named = CENTRAL SYSTEM did not converge for mass flow rate
   **   ~~~   ** Check values should be zero. Most Recent values listed first.
   **   ~~~   ** Demand-to-Supply interface mass flow rate check value iteration history trace: 9.440297E-002,9.440297E-002,9.440297E-002,9.440297E-002,9.440297E-002,9.440297E-002,9.440297E-002,9.440297E-002,9.440297E-002,9.440297E-002,
   **   ~~~   ** Supply-to-demand interface deck 1 mass flow rate check value iteration history trace: 9.440297E-002,9.440297E-002,9.440297E-002,9.440297E-002,9.440297E-002,9.440297E-002,9.440297E-002,9.440297E-002,9.440297E-002,9.440297E-002,
   **   ~~~   ** Air System Named = CENTRAL SYSTEM did not converge for energy
   **   ~~~   ** Check values should be zero. Most Recent values listed first.
   **   ~~~   ** Demand-to-Supply interface energy check value iteration history trace: 1870.626643,1870.626643,1870.626643,1870.626643,1870.626643,1870.626642,1870.626642,1870.626642,1870.626642,1870.626642,
   **   ~~~   ** Supply-to-demand interface deck 1 energy check value iteration history trace: 2914.642363,2914.642363,2914.642363,2914.642363,2914.642363,2914.642363,2914.642362,2914.642362,2914.642362,2914.642362,
   ** Warning ** SimHVAC: Maximum iterations (20) exceeded for all HVAC loops, at EXTREME_WINTER, 01/16 19:10 - 19:15
   **   ~~~   ** The solution for one or more of the Air Loop HVAC systems did not appear to converge
   **   ~~~   ** Air System Named = CENTRAL SYSTEM did not converge for mass flow rate
   **   ~~~   ** Check values should be zero. Most Recent values listed first.
   **   ~~~   ** Demand-to-Supply interface mass flow rate check value iteration history trace: 0.106812,0.106812,0.106812,0.106812,0.106812,0.106812,0.106812,0.106812,0.106812,0.106812,
   **   ~~~   ** Supply-to-demand interface deck 1 mass flow rate check value iteration history trace: 0.106812,0.106812,0.106812,0.106812,0.106812,0.106812,0.106812,0.106812,0.106812,0.106812,
   **   ~~~   ** Air System Named = CENTRAL SYSTEM did not converge for energy
   **   ~~~   ** Check values should be zero. Most Recent values listed first.
   **   ~~~   ** Demand-to-Supply interface energy check value iteration history trace: 2094.881705,2094.881705,2094.881705,2094.881705,2094.881704,2094.881704,2094.881704,2094.881704,2094.881704,2094.881704,
   **   ~~~   ** Supply-to-demand interface deck 1 energy check value iteration history trace: 3217.766317,3217.766317,3217.766317,3217.766317,3217.766316,3217.766316,3217.766316,3217.766316,3217.766316,3217.766315,
   ** Warning ** SimHVAC: Maximum iterations (20) exceeded for all HVAC loops, at ANNUAL, 01/14 09:23 - 09:26
   **   ~~~   ** The solution for one or more of the Air Loop HVAC systems did not appear to converge
   **   ~~~   ** Air System Named = CENTRAL SYSTEM did not converge for mass flow rate
   **   ~~~   ** Check values should be zero. Most Recent values listed first.
   **   ~~~   ** Demand-to-Supply interface mass flow rate check value iteration history trace: 0.100110,0.100110,0.100110,0.100110,0.100110,0.100110,0.100110,0.100110,0.100110,0.100110,
   **   ~~~   ** Supply-to-demand interface deck 1 mass flow rate check value iteration history trace: 0.100110,0.100110,0.100110,0.100110,0.100110,0.100110,0.100110,0.100110,0.100110,0.100110,
   **   ~~~   ** Air System Named = CENTRAL SYSTEM did not converge for energy
   **   ~~~   ** Check values should be zero. Most Recent values listed first.
   **   ~~~   ** Demand-to-Supply interface energy check value iteration history trace: 1983.819258,1983.819258,1983.819257,1983.819257,1983.819257,1983.819257,1983.819257,1983.819257,1983.819257,1983.819257,
   **   ~~~   ** Supply-to-demand interface deck 1 energy check value iteration history trace: 2997.114002,2997.114001,2997.114001,2997.114001,2997.114001,2997.114001,2997.114000,2997.114000,2997.114000,2997.114000,
   ** Warning ** SimHVAC: Maximum iterations (20) exceeded for all HVAC loops, at ANNUAL, 01/25 11:45 - 11:49
   **   ~~~   ** The solution for one or more of the Air Loop HVAC systems did not appear to converge
   **   ~~~   ** Air System Named = CENTRAL SYSTEM did not converge for mass flow rate
   **   ~~~   ** Check values should be zero. Most Recent values listed first.
   **   ~~~   ** Demand-to-Supply interface mass flow rate check value iteration history trace: 8.648195E-002,8.648195E-002,8.648195E-002,8.648195E-002,8.648195E-002,8.648195E-002,8.648195E-002,8.648195E-002,8.648195E-002,8.648195E-002,
   **   ~~~   ** Supply-to-demand interface deck 1 mass flow rate check value iteration history trace: 8.648195E-002,8.648195E-002,8.648195E-002,8.648195E-002,8.648195E-002,8.648195E-002,8.648195E-002,8.648195E-002,8.648195E-002,8.648195E-002,
   **   ~~~   ** Air System Named = CENTRAL SYSTEM did not converge for energy
   **   ~~~   ** Check values should be zero. Most Recent values listed first.
   **   ~~~   ** Demand-to-Supply interface energy check value iteration history trace: 1713.765257,1713.765257,1713.765256,1713.765256,1713.765256,1713.765256,1713.765256,1713.765256,1713.765256,1713.765256,
   **   ~~~   ** Supply-to-demand interface deck 1 energy check value iteration history trace: 2571.883243,2571.883243,2571.883243,2571.883242,2571.883242,2571.883242,2571.883242,2571.883242,2571.883241,2571.883241,
   ** Warning ** SimHVAC: Maximum iterations (20) exceeded for all HVAC loops, at ANNUAL, 01/26 12:30 - 12:45
   **   ~~~   ** The solution for one or more of the Air Loop HVAC systems did not appear to converge
   **   ~~~   ** Air System Named = CENTRAL SYSTEM did not converge for mass flow rate
   **   ~~~   ** Check values should be zero. Most Recent values listed first.
   **   ~~~   ** Demand-to-Supply interface mass flow rate check value iteration history trace: 6.321816E-002,6.321816E-002,6.321816E-002,6.321816E-002,6.321816E-002,6.321816E-002,6.321816E-002,6.321816E-002,6.321816E-002,6.321816E-002,
   **   ~~~   ** Supply-to-demand interface deck 1 mass flow rate check value iteration history trace: 6.321816E-002,6.321816E-002,6.321816E-002,6.321816E-002,6.321816E-002,6.321816E-002,6.321816E-002,6.321816E-002,6.321816E-002,6.321816E-002,
   **   ~~~   ** Air System Named = CENTRAL SYSTEM did not converge for energy
   **   ~~~   ** Check values should be zero. Most Recent values listed first.
   **   ~~~   ** Demand-to-Supply interface energy check value iteration history trace: 1252.756952,1252.756952,1252.756952,1252.756952,1252.756952,1252.756952,1252.756951,1252.756951,1252.756951,1252.756951,
   **   ~~~   ** Supply-to-demand interface deck 1 energy check value iteration history trace: 2097.705366,2097.705366,2097.705366,2097.705365,2097.705365,2097.705365,2097.705365,2097.705365,2097.705365,2097.705365,
   ** Warning ** SimHVAC: Maximum iterations (20) exceeded for all HVAC loops, at ANNUAL, 01/26 23:00 - 23:15
   **   ~~~   ** The solution for one or more of the Air Loop HVAC systems did not appear to converge
   **   ~~~   ** Air System Named = CENTRAL SYSTEM did not converge for mass flow rate
   **   ~~~   ** Check values should be zero. Most Recent values listed first.
   **   ~~~   ** Demand-to-Supply interface mass flow rate check value iteration history trace: 7.934394E-002,7.934394E-002,7.934394E-002,7.934394E-002,7.934394E-002,7.934394E-002,7.934394E-002,7.934394E-002,7.934394E-002,7.934394E-002,
   **   ~~~   ** Supply-to-demand interface deck 1 mass flow rate check value iteration history trace: 7.934394E-002,7.934394E-002,7.934394E-002,7.934394E-002,7.934394E-002,7.934394E-002,7.934394E-002,7.934394E-002,7.934394E-002,7.934394E-002,
   **   ~~~   ** Air System Named = CENTRAL SYSTEM did not converge for energy
   **   ~~~   ** Check values should be zero. Most Recent values listed first.
   **   ~~~   ** Demand-to-Supply interface energy check value iteration history trace: 1483.700326,1483.700326,1483.700326,1483.700326,1483.700326,1483.700326,1483.700326,1483.700326,1483.700326,1483.700325,
   **   ~~~   ** Supply-to-demand interface deck 1 energy check value iteration history trace: 2364.356117,2364.356117,2364.356117,2364.356116,2364.356116,2364.356116,2364.356116,2364.356116,2364.356116,2364.356116,
   ** Warning ** SimHVAC: Maximum iterations (20) exceeded for all HVAC loops, at ANNUAL, 01/27 11:45 - 12:00
   **   ~~~   ** The solution for one or more of the Air Loop HVAC systems did not appear to converge
   **   ~~~   ** Air System Named = CENTRAL SYSTEM did not converge for mass flow rate
   **   ~~~   ** Check values should be zero. Most Recent values listed first.
   **   ~~~   ** Demand-to-Supply interface mass flow rate check value iteration history trace: 8.918361E-002,8.918361E-002,8.918361E-002,8.918361E-002,8.918361E-002,8.918361E-002,8.918361E-002,8.918361E-002,8.918361E-002,8.918361E-002,
   **   ~~~   ** Supply-to-demand interface deck 1 mass flow rate check value iteration history trace: 8.918361E-002,8.918361E-002,8.918361E-002,8.918361E-002,8.918361E-002,8.918361E-002,8.918361E-002,8.918361E-002,8.918361E-002,8.918361E-002,
   **   ~~~   ** Air System Named = CENTRAL SYSTEM did not converge for energy
   **   ~~~   ** Check values should be zero. Most Recent values listed first.
   **   ~~~   ** Demand-to-Supply interface energy check value iteration history trace: 1765.975863,1765.975863,1765.975863,1765.975863,1765.975863,1765.975862,1765.975862,1765.975862,1765.975862,1765.975862,
   **   ~~~   ** Supply-to-demand interface deck 1 energy check value iteration history trace: 2749.561040,2749.561040,2749.561040,2749.561040,2749.561040,2749.561039,2749.561039,2749.561039,2749.561039,2749.561039,
   ** Warning ** SimHVAC: Maximum iterations (20) exceeded for all HVAC loops, at ANNUAL, 01/28 10:30 - 10:34
   **   ~~~   ** The solution for one or more of the Air Loop HVAC systems did not appear to converge
   **   ~~~   ** Air System Named = CENTRAL SYSTEM did not converge for mass flow rate
   **   ~~~   ** Check values should be zero. Most Recent values listed first.
   **   ~~~   ** Demand-to-Supply interface mass flow rate check value iteration history trace: 9.187869E-002,9.187869E-002,9.187869E-002,9.187869E-002,9.187869E-002,9.187869E-002,9.187869E-002,9.187869E-002,9.187869E-002,9.187869E-002,
   **   ~~~   ** Supply-to-demand interface deck 1 mass flow rate check value iteration history trace: 9.187869E-002,9.187869E-002,9.187869E-002,9.187869E-002,9.187869E-002,9.187869E-002,9.187869E-002,9.187869E-002,9.187869E-002,9.187869E-002,
   **   ~~~   ** Air System Named = CENTRAL SYSTEM did not converge for energy
   **   ~~~   ** Check values should be zero. Most Recent values listed first.
   **   ~~~   ** Demand-to-Supply interface energy check value iteration history trace: 1820.667925,1820.667925,1820.667925,1820.667925,1820.667925,1820.667925,1820.667924,1820.667924,1820.667924,1820.667924,
   **   ~~~   ** Supply-to-demand interface deck 1 energy check value iteration history trace: 2826.347976,2826.347975,2826.347975,2826.347975,2826.347975,2826.347975,2826.347974,2826.347974,2826.347974,2826.347974,
   ** Warning ** SimHVAC: Maximum iterations (20) exceeded for all HVAC loops, at ANNUAL, 01/31 11:00 - 11:15
   **   ~~~   ** The solution for one or more of the Air Loop HVAC systems did not appear to converge
   **   ~~~   ** Air System Named = CENTRAL SYSTEM did not converge for mass flow rate
   **   ~~~   ** Check values should be zero. Most Recent values listed first.
   **   ~~~   ** Demand-to-Supply interface mass flow rate check value iteration history trace: 9.936981E-002,9.936981E-002,9.936981E-002,9.936981E-002,9.936981E-002,9.936981E-002,9.936981E-002,9.936981E-002,9.936981E-002,9.936981E-002,
   **   ~~~   ** Supply-to-demand interface deck 1 mass flow rate check value iteration history trace: 9.936981E-002,9.936981E-002,9.936981E-002,9.936981E-002,9.936981E-002,9.936981E-002,9.936981E-002,9.936981E-002,9.936981E-002,9.936981E-002,
   **   ~~~   ** Air System Named = CENTRAL SYSTEM did not converge for energy
   **   ~~~   ** Check values should be zero. Most Recent values listed first.
   **   ~~~   ** Demand-to-Supply interface energy check value iteration history trace: 1968.894708,1968.894708,1968.894708,1968.894707,1968.894707,1968.894707,1968.894707,1968.894707,1968.894707,1968.894707,
   **   ~~~   ** Supply-to-demand interface deck 1 energy check value iteration history trace: 3086.106966,3086.106966,3086.106965,3086.106965,3086.106965,3086.106965,3086.106965,3086.106965,3086.106965,3086.106965,
   ** Warning ** SimHVAC: Maximum iterations (20) exceeded for all HVAC loops, at ANNUAL, 02/02 10:47 - 10:50
   **   ~~~   ** The solution for one or more of the Air Loop HVAC systems did not appear to converge
   **   ~~~   ** Air System Named = CENTRAL SYSTEM did not converge for mass flow rate
   **   ~~~   ** Check values should be zero. Most Recent values listed first.
   **   ~~~   ** Demand-to-Supply interface mass flow rate check value iteration history trace: 0.102812,0.102812,0.102812,0.102812,0.102812,0.102812,0.102812,0.102812,0.102812,0.102812,
   **   ~~~   ** Supply-to-demand interface deck 1 mass flow rate check value iteration history trace: 0.102812,0.102812,0.102812,0.102812,0.102812,0.102812,0.102812,0.102812,0.102812,0.102812,
   **   ~~~   ** Air System Named = CENTRAL SYSTEM did not converge for energy
   **   ~~~   ** Check values should be zero. Most Recent values listed first.
   **   ~~~   ** Demand-to-Supply interface energy check value iteration history trace: 2037.514505,2037.514505,2037.514504,2037.514504,2037.514504,2037.514504,2037.514504,2037.514504,2037.514503,2037.514503,
   **   ~~~   ** Supply-to-demand interface deck 1 energy check value iteration history trace: 3057.650964,3057.650963,3057.650963,3057.650963,3057.650963,3057.650962,3057.650962,3057.650962,3057.650962,3057.650962,
   ** Warning ** SimHVAC: Maximum iterations (20) exceeded for all HVAC loops, at ANNUAL, 02/03 21:45 - 22:00
   **   ~~~   ** The solution for one or more of the Air Loop HVAC systems did not appear to converge
   **   ~~~   ** Air System Named = CENTRAL SYSTEM did not converge for mass flow rate
   **   ~~~   ** Check values should be zero. Most Recent values listed first.
   **   ~~~   ** Demand-to-Supply interface mass flow rate check value iteration history trace: 8.558757E-002,8.558757E-002,8.558757E-002,8.558757E-002,8.558757E-002,8.558757E-002,8.558757E-002,8.558757E-002,8.558757E-002,8.558757E-002,
   **   ~~~   ** Supply-to-demand interface deck 1 mass flow rate check value iteration history trace: 8.558757E-002,8.558757E-002,8.558757E-002,8.558757E-002,8.558757E-002,8.558757E-002,8.558757E-002,8.558757E-002,8.558757E-002,8.558757E-002,
   **   ~~~   ** Air System Named = CENTRAL SYSTEM did not converge for energy
   **   ~~~   ** Check values should be zero. Most Recent values listed first.
   **   ~~~   ** Demand-to-Supply interface energy check value iteration history trace: 1691.769619,1691.769619,1691.769619,1691.769619,1691.769619,1691.769619,1691.769619,1691.769618,1691.769618,1691.769618,
   **   ~~~   ** Supply-to-demand interface deck 1 energy check value iteration history trace: 2597.312948,2597.312948,2597.312948,2597.312947,2597.312947,2597.312947,2597.312947,2597.312947,2597.312947,2597.312946,
   ** Warning ** SimHVAC: Maximum iterations (20) exceeded for all HVAC loops, at ANNUAL, 02/04 11:53 - 11:56
   **   ~~~   ** The solution for one or more of the Air Loop HVAC systems did not appear to converge
   **   ~~~   ** Air System Named = CENTRAL SYSTEM did not converge for mass flow rate
   **   ~~~   ** Check values should be zero. Most Recent values listed first.
   **   ~~~   ** Demand-to-Supply interface mass flow rate check value iteration history trace: 7.773882E-002,7.773882E-002,7.773882E-002,7.773882E-002,7.773882E-002,7.773882E-002,7.773882E-002,7.773882E-002,7.773882E-002,7.773882E-002,
   **   ~~~   ** Supply-to-demand interface deck 1 mass flow rate check value iteration history trace: 7.773882E-002,7.773882E-002,7.773882E-002,7.773882E-002,7.773882E-002,7.773882E-002,7.773882E-002,7.773882E-002,7.773882E-002,7.773882E-002,
   **   ~~~   ** Air System Named = CENTRAL SYSTEM did not converge for energy
   **   ~~~   ** Check values should be zero. Most Recent values listed first.
   **   ~~~   ** Demand-to-Supply interface energy check value iteration history trace: 1540.567648,1540.567648,1540.567648,1540.567648,1540.567648,1540.567648,1540.567647,1540.567647,1540.567647,1540.567647,
   **   ~~~   ** Supply-to-demand interface deck 1 energy check value iteration history trace: 2380.443319,2380.443318,2380.443318,2380.443318,2380.443318,2380.443318,2380.443318,2380.443317,2380.443317,2380.443317,
   ** Warning ** SimHVAC: Maximum iterations (20) exceeded for all HVAC loops, at ANNUAL, 02/04 12:30 - 12:35
   **   ~~~   ** The solution for one or more of the Air Loop HVAC systems did not appear to converge
   **   ~~~   ** Air System Named = CENTRAL SYSTEM did not converge for mass flow rate
   **   ~~~   ** Check values should be zero. Most Recent values listed first.
   **   ~~~   ** Demand-to-Supply interface mass flow rate check value iteration history trace: 6.942056E-002,6.942056E-002,6.942056E-002,6.942056E-002,6.942056E-002,6.942056E-002,6.942056E-002,6.942056E-002,6.942056E-002,6.942056E-002,
   **   ~~~   ** Supply-to-demand interface deck 1 mass flow rate check value iteration history trace: 6.942056E-002,6.942056E-002,6.942056E-002,6.942056E-002,6.942056E-002,6.942056E-002,6.942056E-002,6.942056E-002,6.942056E-002,6.942056E-002,
   **   ~~~   ** Air System Named = CENTRAL SYSTEM did not converge for energy
   **   ~~~   ** Check values should be zero. Most Recent values listed first.
   **   ~~~   ** Demand-to-Supply interface energy check value iteration history trace: 1369.842526,1369.842526,1369.842526,1369.842526,1369.842526,1369.842526,1369.842526,1369.842526,1369.842526,1369.842525,
   **   ~~~   ** Supply-to-demand interface deck 1 energy check value iteration history trace: 2144.963785,2144.963785,2144.963785,2144.963785,2144.963785,2144.963785,2144.963784,2144.963784,2144.963784,2144.963784,
   ************* Simulation Error Summary *************
   ** Warning ** The following Report Variables were requested but not generated -- check.rdd file
   **   ~~~   ** Either the IDF did not contain these elements, the variable name is misspelled,
   **   ~~~   ** or the requested variable is an advanced output which requires Output : Diagnostics, DisplayAdvancedReportVariables;
   ************* Key=*, VarName=BASEBOARD TOTAL HEATING ENERGY, Frequency=
   ************* Key=*, VarName=WATER HEATER NATURALGAS ENERGY, Frequency=
   ************* Key=*, VarName=COOLING COIL TOTAL HEATING ENERGY, Frequency=
   ************* There are 34 unused schedules in input.
   ************* There are 388 unused week schedules in input.
   ************* There are 396 unused day schedules in input.
   ************* Use Output:Diagnostics,DisplayUnusedSchedules; to see them.
   *************
   ************* ===== Recurring Error Summary =====
   ************* The following recurring error messages occurred.
   *************
   *************  ** Warning ** "TOTAL HOT WATER LOAD" - Target water temperature should be less than or equal to the hot water temperature error continues...
   *************  **   ~~~   **   This error occurred 154721 total times;
   *************  **   ~~~   **   during Warmup 0 times;
   *************  **   ~~~   **   during Sizing 0 times.
   *************  **   ~~~   **   Max=11.934107  Min=6.785426E-004
   *************
   *************  ** Warning ** SimHVAC: Exceeding Maximum iterations for all HVAC loops, during ANNUAL continues
   *************  **   ~~~   **   This error occurred 21 total times;
   *************  **   ~~~   **   during Warmup 0 times;
   *************  **   ~~~   **   during Sizing 0 times.
   *************
   *************
   ************* ===== Final Error Summary =====
   ************* The following error categories occurred.  Consider correcting or noting.
   ************* Nominally Unused Constructions
   ************* ..The nominally unused constructions warning is provided to alert you to potential conditions that can cause
   ************* ..extra time during simulation. Each construction is calculated by the algorithm indicated in the HeatBalanceAlgorithm
   ************* ..object. You may remove the constructions indicated (when you use the DisplayExtraWarnings option).
   *************
   ************* EnergyPlus Warmup Error Summary. During Warmup: 1 Warning; 0 Severe Errors.
   ************* EnergyPlus Sizing Error Summary. During Sizing: 4 Warning; 0 Severe Errors.
   ************* EnergyPlus Completed Successfully-- 154773 Warning; 0 Severe Errors; Elapsed Time=00hr 01min 32.81sec
