Program Version,EnergyPlus, Version 22.2.0-c249759bad, YMD=2023.09.01 20:03,
   ************* Beginning Zone Sizing Calculations
   ** Warning ** ProcessScheduleInput: Schedule:Constant="ALWAYS ON DISCRETE", Schedule Type Limits Name="ONOFF" not found -- will not be validated
   ** Warning ** Foundation:Kiva="KIVA FOUNDATION", no Interior Horizontal Insulation Material Name defined
   **   ~~~   ** Interior Horizontal Insulation Depth will not be used.
   ** Warning ** CheckUsedConstructions: There are 15 nominally unused constructions in input.
   **   ~~~   ** Each Unused construction is shown.
   ************* Construction=INTERIOR FLOOR
   ************* Construction=INTERIOR WINDOW
   ************* Construction=EXTERIOR DOOR
   ************* Construction=INTERIOR DOOR
   ************* Construction=GABLE CONSTRUCTION
   ************* Construction=CRAWL_FLOOR
   ************* Construction=INSULATED PIPE
   ************* Construction=PLAIN PIPE
   ************* Construction=TDD PIPE
   ************* Construction=TDD DOME
   ************* Construction=TDD DIFFUSER
   ************* Construction=CRAWL WALL
   ************* Construction=CEILING-FLOOR-LAYER
   ************* Construction=SLAB CONSTRUCTION W FULL R10 INSULATION
   ************* Construction=SLAB CONSTRUCTION W FULL R5 INSULATION
   ** Warning ** GetDXCoils: Coil:Heating:DX:SingleSpeed="DX_HEATING_COIL" curve values
   **   ~~~   ** ... Defrost Energy Input Ratio Function of Temperature Curve Name = DEFROSTEIR output is not equal to 1.0 (+ or - 10%) at rated conditions.
   **   ~~~   ** ... Curve output at rated conditions = 0.152
   ************* Beginning System Sizing Calculations
   ************* Beginning Plant Sizing Calculations
   ** Warning ** Coil:WaterHeating:AirToWaterHeatPump:Wrapped "HEAT PUMP WATER HEATER EVAPORATOR": Rated air volume flow rate per watt of rated total water heating capacity is out of range
   **   ~~~   ** Min Rated Vol Flow Per Watt=[4.027E-005], Rated Vol Flow Per Watt=[1.510E-004], Max Rated Vol Flow Per Watt=[8.056E-005]. See Input-Output Reference Manual for valid range.
   ************* SizeFan: : Potential issue with equipment sizing for Fan:OnOff HEAT PUMP WATER HEATER FAN
   **   ~~~   ** User-Specified Maximum Flow Rate [m3/s] = 0.22653
   **   ~~~   ** differs from Design Size Maximum Flow Rate [m3/s] = 7.55250E-002
   **   ~~~   ** This may, or may not, indicate mismatched component sizes.
   **   ~~~   ** Verify that the value entered is intended and is consistent with other components.
   ** Warning ** Water heater = WATER HEATER TANK:  Recovery Efficiency and Energy Factor could not be calculated during the test for standard ratings
   **   ~~~   ** Setpoint was never recovered and/or heater never turned on
   ** Warning ** Check input. Pump nominal power or motor efficiency is set to 0, for pump=MAINS PRESSURE
   ** Warning ** AirflowNetwork::Solver::validate_distribution: Heat pump water heater is simulated along with an AirflowNetwork but is not included in the AirflowNetwork.
   ** Warning ** Output:Meter: invalid Key Name="ELECTRIC_RANGE:INTERIOREQUIPMENT:ELECTRICITY" - not found.
   ** Warning ** Output:Meter: invalid Key Name="ELECTRIC_DRYER:INTERIOREQUIPMENT:ELECTRICITY" - not found.
   ** Warning ** Output:Meter: invalid Key Name="HEATRECOVERY:ELECTRICITY" - not found.
   ** Warning ** Output:Meter: invalid Key Name="HEATING:NATURALGAS" - not found.
   ** Warning ** Output:Meter: invalid Key Name="WATERSYSTEMS:NATURALGAS" - not found.
   ** Warning ** Output:Meter: invalid Key Name="PROPANE:FACILITY" - not found.
   ** Warning ** Output:Meter: invalid Key Name="HEATING:PROPANE" - not found.
   ************* Testing Individual Branch Integrity
   ************* All Branches passed integrity testing
   ************* Testing Individual Supply Air Path Integrity
   ************* All Supply Air Paths passed integrity testing
   ************* Testing Individual Return Air Path Integrity
   ************* All Return Air Paths passed integrity testing
   ************* No node connection errors were found.
   ************* Beginning Simulation
   ** Warning ** CalcEquipmentFlowRates: "TOTAL HOT WATER LOAD" - Target water temperature is greater than the hot water temperature by (4.77 C)
   **   ~~~   **  Environment=EXTREME_WINTER, at Simulation time=02/17 07:00 - 07:15
   **   ~~~   ** ...target water temperature     = 53.33 C
   **   ~~~   ** ...hot water temperature        = 48.56 C
   **   ~~~   ** ...Target water temperature should be less than or equal to the hot water temperature. Verify temperature setpoints and schedules.
   ** Warning ** SimHVAC: Maximum iterations (20) exceeded for all HVAC loops, at EXTREME_WINTER, 02/22 13:00 - 13:15
   **   ~~~   ** The solution for one or more of the Air Loop HVAC systems did not appear to converge
   **   ~~~   ** Air System Named = CENTRAL SYSTEM did not converge for mass flow rate
   **   ~~~   ** Check values should be zero. Most Recent values listed first.
   **   ~~~   ** Demand-to-Supply interface mass flow rate check value iteration history trace: 6.342499E-002,6.342499E-002,6.342499E-002,6.342499E-002,6.342499E-002,6.342499E-002,6.342499E-002,6.342499E-002,6.342499E-002,6.342499E-002,
   **   ~~~   ** Supply-to-demand interface deck 1 mass flow rate check value iteration history trace: 6.342499E-002,6.342499E-002,6.342499E-002,6.342499E-002,6.342499E-002,6.342499E-002,6.342499E-002,6.342499E-002,6.342499E-002,6.342499E-002,
   **   ~~~   ** Air System Named = CENTRAL SYSTEM did not converge for energy
   **   ~~~   ** Check values should be zero. Most Recent values listed first.
   **   ~~~   ** Demand-to-Supply interface energy check value iteration history trace: 1256.928208,1256.928208,1256.928208,1256.928208,1256.928208,1256.928208,1256.928208,1256.928208,1256.928208,1256.928207,
   **   ~~~   ** Supply-to-demand interface deck 1 energy check value iteration history trace: 1896.757035,1896.757035,1896.757035,1896.757035,1896.757035,1896.757034,1896.757034,1896.757034,1896.757034,1896.757034,
   ** Warning ** SimHVAC: Maximum iterations (20) exceeded for all HVAC loops, at EXTREME_WINTER, 02/22 13:00 - 13:05
   **   ~~~   ** The solution for one or more of the Air Loop HVAC systems did not appear to converge
   **   ~~~   ** Air System Named = CENTRAL SYSTEM did not converge for mass flow rate
   **   ~~~   ** Check values should be zero. Most Recent values listed first.
   **   ~~~   ** Demand-to-Supply interface mass flow rate check value iteration history trace: 6.976975E-002,6.976975E-002,6.976975E-002,6.976975E-002,6.976975E-002,6.976975E-002,6.976975E-002,6.976975E-002,6.976975E-002,6.976975E-002,
   **   ~~~   ** Supply-to-demand interface deck 1 mass flow rate check value iteration history trace: 6.976975E-002,6.976975E-002,6.976975E-002,6.976975E-002,6.976975E-002,6.976975E-002,6.976975E-002,6.976975E-002,6.976975E-002,6.976975E-002,
   **   ~~~   ** Air System Named = CENTRAL SYSTEM did not converge for energy
   **   ~~~   ** Check values should be zero. Most Recent values listed first.
   **   ~~~   ** Demand-to-Supply interface energy check value iteration history trace: 1382.662692,1382.662692,1382.662692,1382.662692,1382.662692,1382.662692,1382.662692,1382.662692,1382.662692,1382.662692,
   **   ~~~   ** Supply-to-demand interface deck 1 energy check value iteration history trace: 2086.485425,2086.485425,2086.485425,2086.485424,2086.485424,2086.485424,2086.485424,2086.485424,2086.485424,2086.485424,
   ** Warning ** SimHVAC: Maximum iterations (20) exceeded for all HVAC loops, at EXTREME_WINTER, 02/23 14:23 - 14:30
   **   ~~~   ** The solution for one or more of the Air Loop HVAC systems did not appear to converge
   **   ~~~   ** Air System Named = CENTRAL SYSTEM did not converge for mass flow rate
   **   ~~~   ** Check values should be zero. Most Recent values listed first.
   **   ~~~   ** Demand-to-Supply interface mass flow rate check value iteration history trace: 1.838566E-002,1.838566E-002,1.838566E-002,1.838566E-002,1.838566E-002,1.838566E-002,1.838566E-002,1.838566E-002,1.838566E-002,1.838566E-002,
   **   ~~~   ** Supply-to-demand interface deck 1 mass flow rate check value iteration history trace: 1.838566E-002,1.838566E-002,1.838566E-002,1.838566E-002,1.838566E-002,1.838566E-002,1.838566E-002,1.838566E-002,1.838566E-002,1.838566E-002,
   **   ~~~   ** Air System Named = CENTRAL SYSTEM did not converge for energy
   **   ~~~   ** Check values should be zero. Most Recent values listed first.
   **   ~~~   ** Demand-to-Supply interface energy check value iteration history trace: 362.074754,362.074754,362.074754,362.074754,362.074754,362.074754,362.074754,362.074754,362.074754,362.074754,
   **   ~~~   ** Supply-to-demand interface deck 1 energy check value iteration history trace: 557.443720,557.443720,557.443720,557.443720,557.443720,557.443720,557.443720,557.443720,557.443719,557.443719,
   ** Warning ** SimHVAC: Maximum iterations (20) exceeded for all HVAC loops, at ANNUAL, 01/11 12:00 - 12:15
   **   ~~~   ** The solution for one or more of the Air Loop HVAC systems did not appear to converge
   **   ~~~   ** Air System Named = CENTRAL SYSTEM did not converge for mass flow rate
   **   ~~~   ** Check values should be zero. Most Recent values listed first.
   **   ~~~   ** Demand-to-Supply interface mass flow rate check value iteration history trace: 4.786208E-002,4.786208E-002,4.786208E-002,4.786208E-002,4.786208E-002,4.786208E-002,4.786208E-002,4.786208E-002,4.786208E-002,4.786208E-002,
   **   ~~~   ** Supply-to-demand interface deck 1 mass flow rate check value iteration history trace: 4.786208E-002,4.786208E-002,4.786208E-002,4.786208E-002,4.786208E-002,4.786208E-002,4.786208E-002,4.786208E-002,4.786208E-002,4.786208E-002,
   **   ~~~   ** Air System Named = CENTRAL SYSTEM did not converge for energy
   **   ~~~   ** Check values should be zero. Most Recent values listed first.
   **   ~~~   ** Demand-to-Supply interface energy check value iteration history trace: 948.472558,948.472558,948.472558,948.472557,948.472557,948.472557,948.472557,948.472557,948.472557,948.472557,
   **   ~~~   ** Supply-to-demand interface deck 1 energy check value iteration history trace: 1782.712983,1782.712983,1782.712983,1782.712983,1782.712982,1782.712982,1782.712982,1782.712982,1782.712981,1782.712981,
   **   ~~~   ** Node named ZONE INLET NODE shows oscillating temperatures across iterations with a repeated value of 37.067327
   **   ~~~   ** Node named ZONE INLET NODE temperature [C] iteration history trace (most recent first): 37.067327,37.067327,37.067327,37.067326,37.067326,37.067326,37.067326,37.067325,37.067325,37.067325,
   ** Warning ** SimHVAC: Maximum iterations (20) exceeded for all HVAC loops, at ANNUAL, 02/13 10:26 - 10:30
   **   ~~~   ** The solution for one or more of the Air Loop HVAC systems did not appear to converge
   **   ~~~   ** Air System Named = CENTRAL SYSTEM did not converge for mass flow rate
   **   ~~~   ** Check values should be zero. Most Recent values listed first.
   **   ~~~   ** Demand-to-Supply interface mass flow rate check value iteration history trace: 7.180981E-002,7.180981E-002,7.180981E-002,7.180981E-002,7.180981E-002,7.180981E-002,7.180981E-002,7.180981E-002,7.180981E-002,7.180981E-002,
   **   ~~~   ** Supply-to-demand interface deck 1 mass flow rate check value iteration history trace: 7.180981E-002,7.180981E-002,7.180981E-002,7.180981E-002,7.180981E-002,7.180981E-002,7.180981E-002,7.180981E-002,7.180981E-002,7.180981E-002,
   **   ~~~   ** Air System Named = CENTRAL SYSTEM did not converge for energy
   **   ~~~   ** Check values should be zero. Most Recent values listed first.
   **   ~~~   ** Demand-to-Supply interface energy check value iteration history trace: 1420.406232,1420.406232,1420.406232,1420.406232,1420.406232,1420.406232,1420.406232,1420.406232,1420.406232,1420.406232,
   **   ~~~   ** Supply-to-demand interface deck 1 energy check value iteration history trace: 2485.579570,2485.579570,2485.579570,2485.579569,2485.579569,2485.579569,2485.579569,2485.579569,2485.579569,2485.579569,
   ** Warning ** SimHVAC: Maximum iterations (20) exceeded for all HVAC loops, at ANNUAL, 02/19 10:45 - 11:00
   **   ~~~   ** The solution for one or more of the Air Loop HVAC systems did not appear to converge
   **   ~~~   ** Air System Named = CENTRAL SYSTEM did not converge for mass flow rate
   **   ~~~   ** Check values should be zero. Most Recent values listed first.
   **   ~~~   ** Demand-to-Supply interface mass flow rate check value iteration history trace: 8.570688E-002,8.570688E-002,8.570688E-002,8.570688E-002,8.570688E-002,8.570688E-002,8.570688E-002,8.570688E-002,8.570688E-002,8.570688E-002,
   **   ~~~   ** Supply-to-demand interface deck 1 mass flow rate check value iteration history trace: 8.570688E-002,8.570688E-002,8.570688E-002,8.570688E-002,8.570688E-002,8.570688E-002,8.570688E-002,8.570688E-002,8.570688E-002,8.570688E-002,
   **   ~~~   ** Air System Named = CENTRAL SYSTEM did not converge for energy
   **   ~~~   ** Check values should be zero. Most Recent values listed first.
   **   ~~~   ** Demand-to-Supply interface energy check value iteration history trace: 1696.960814,1696.960814,1696.960814,1696.960814,1696.960814,1696.960814,1696.960813,1696.960813,1696.960813,1696.960813,
   **   ~~~   ** Supply-to-demand interface deck 1 energy check value iteration history trace: 2746.368590,2746.368590,2746.368590,2746.368590,2746.368590,2746.368589,2746.368589,2746.368589,2746.368589,2746.368589,
   ** Warning ** SimHVAC: Maximum iterations (20) exceeded for all HVAC loops, at ANNUAL, 02/19 12:00 - 12:04
   **   ~~~   ** The solution for one or more of the Air Loop HVAC systems did not appear to converge
   **   ~~~   ** Air System Named = CENTRAL SYSTEM did not converge for mass flow rate
   **   ~~~   ** Check values should be zero. Most Recent values listed first.
   **   ~~~   ** Demand-to-Supply interface mass flow rate check value iteration history trace: 7.215611E-002,7.215611E-002,7.215611E-002,7.215611E-002,7.215611E-002,7.215611E-002,7.215611E-002,7.215611E-002,7.215611E-002,7.215611E-002,
   **   ~~~   ** Supply-to-demand interface deck 1 mass flow rate check value iteration history trace: 7.215611E-002,7.215611E-002,7.215611E-002,7.215611E-002,7.215611E-002,7.215611E-002,7.215611E-002,7.215611E-002,7.215611E-002,7.215611E-002,
   **   ~~~   ** Air System Named = CENTRAL SYSTEM did not converge for energy
   **   ~~~   ** Check values should be zero. Most Recent values listed first.
   **   ~~~   ** Demand-to-Supply interface energy check value iteration history trace: 1426.690766,1426.690766,1426.690766,1426.690766,1426.690766,1426.690766,1426.690766,1426.690766,1426.690766,1426.690766,
   **   ~~~   ** Supply-to-demand interface deck 1 energy check value iteration history trace: 2353.812717,2353.812717,2353.812717,2353.812717,2353.812716,2353.812716,2353.812716,2353.812716,2353.812716,2353.812716,
   ** Warning ** SimHVAC: Maximum iterations (20) exceeded for all HVAC loops, at ANNUAL, 03/13 09:30 - 09:45
   **   ~~~   ** The solution for one or more of the Air Loop HVAC systems did not appear to converge
   **   ~~~   ** Air System Named = CENTRAL SYSTEM did not converge for mass flow rate
   **   ~~~   ** Check values should be zero. Most Recent values listed first.
   **   ~~~   ** Demand-to-Supply interface mass flow rate check value iteration history trace: 7.586488E-002,7.586488E-002,7.586488E-002,7.586488E-002,7.586488E-002,7.586488E-002,7.586488E-002,7.586488E-002,7.586488E-002,7.586488E-002,
   **   ~~~   ** Supply-to-demand interface deck 1 mass flow rate check value iteration history trace: 7.586488E-002,7.586488E-002,7.586488E-002,7.586488E-002,7.586488E-002,7.586488E-002,7.586488E-002,7.586488E-002,7.586488E-002,7.586488E-002,
   **   ~~~   ** Air System Named = CENTRAL SYSTEM did not converge for energy
   **   ~~~   ** Check values should be zero. Most Recent values listed first.
   **   ~~~   ** Demand-to-Supply interface energy check value iteration history trace: 1503.380975,1503.380975,1503.380975,1503.380974,1503.380974,1503.380974,1503.380974,1503.380974,1503.380974,1503.380974,
   **   ~~~   ** Supply-to-demand interface deck 1 energy check value iteration history trace: 2644.839470,2644.839470,2644.839469,2644.839469,2644.839469,2644.839469,2644.839469,2644.839469,2644.839469,2644.839469,
   ** Warning ** SimHVAC: Maximum iterations (20) exceeded for all HVAC loops, at ANNUAL, 03/13 09:45 - 10:00
   **   ~~~   ** The solution for one or more of the Air Loop HVAC systems did not appear to converge
   **   ~~~   ** Air System Named = CENTRAL SYSTEM did not converge for mass flow rate
   **   ~~~   ** Check values should be zero. Most Recent values listed first.
   **   ~~~   ** Demand-to-Supply interface mass flow rate check value iteration history trace: 7.273529E-002,7.273529E-002,7.273529E-002,7.273529E-002,7.273529E-002,7.273529E-002,7.273529E-002,7.273529E-002,7.273529E-002,7.273529E-002,
   **   ~~~   ** Supply-to-demand interface deck 1 mass flow rate check value iteration history trace: 7.273529E-002,7.273529E-002,7.273529E-002,7.273529E-002,7.273529E-002,7.273529E-002,7.273529E-002,7.273529E-002,7.273529E-002,7.273529E-002,
   **   ~~~   ** Air System Named = CENTRAL SYSTEM did not converge for energy
   **   ~~~   ** Check values should be zero. Most Recent values listed first.
   **   ~~~   ** Demand-to-Supply interface energy check value iteration history trace: 1440.337211,1440.337211,1440.337211,1440.337211,1440.337211,1440.337211,1440.337211,1440.337211,1440.337210,1440.337210,
   **   ~~~   ** Supply-to-demand interface deck 1 energy check value iteration history trace: 2557.967088,2557.967088,2557.967088,2557.967088,2557.967088,2557.967088,2557.967087,2557.967087,2557.967087,2557.967087,
   ** Warning ** SimHVAC: Maximum iterations (20) exceeded for all HVAC loops, at ANNUAL, 03/28 11:15 - 11:19
   **   ~~~   ** The solution for one or more of the Air Loop HVAC systems did not appear to converge
   **   ~~~   ** Air System Named = CENTRAL SYSTEM did not converge for mass flow rate
   **   ~~~   ** Check values should be zero. Most Recent values listed first.
   **   ~~~   ** Demand-to-Supply interface mass flow rate check value iteration history trace: 6.322022E-002,6.322022E-002,6.322022E-002,6.322022E-002,6.322022E-002,6.322022E-002,6.322022E-002,6.322022E-002,6.322022E-002,6.322022E-002,
   **   ~~~   ** Supply-to-demand interface deck 1 mass flow rate check value iteration history trace: 6.322022E-002,6.322022E-002,6.322022E-002,6.322022E-002,6.322022E-002,6.322022E-002,6.322022E-002,6.322022E-002,6.322022E-002,6.322022E-002,
   **   ~~~   ** Air System Named = CENTRAL SYSTEM did not converge for energy
   **   ~~~   ** Check values should be zero. Most Recent values listed first.
   **   ~~~   ** Demand-to-Supply interface energy check value iteration history trace: 1252.810372,1252.810372,1252.810371,1252.810371,1252.810371,1252.810371,1252.810371,1252.810371,1252.810371,1252.810371,
   **   ~~~   ** Supply-to-demand interface deck 1 energy check value iteration history trace: 2257.947920,2257.947919,2257.947919,2257.947919,2257.947919,2257.947919,2257.947919,2257.947919,2257.947919,2257.947919,
   ** Warning ** SimHVAC: Maximum iterations (20) exceeded for all HVAC loops, at ANNUAL, 03/31 07:41 - 07:45
   **   ~~~   ** The solution for one or more of the Air Loop HVAC systems did not appear to converge
   **   ~~~   ** Air System Named = CENTRAL SYSTEM did not converge for mass flow rate
   **   ~~~   ** Check values should be zero. Most Recent values listed first.
   **   ~~~   ** Demand-to-Supply interface mass flow rate check value iteration history trace: 5.172559E-002,5.172559E-002,5.172559E-002,5.172559E-002,5.172559E-002,5.172559E-002,5.172559E-002,5.172559E-002,5.172559E-002,5.172559E-002,
   **   ~~~   ** Supply-to-demand interface deck 1 mass flow rate check value iteration history trace: 5.172559E-002,5.172559E-002,5.172559E-002,5.172559E-002,5.172559E-002,5.172559E-002,5.172559E-002,5.172559E-002,5.172559E-002,5.172559E-002,
   **   ~~~   ** Air System Named = CENTRAL SYSTEM did not converge for energy
   **   ~~~   ** Check values should be zero. Most Recent values listed first.
   **   ~~~   ** Demand-to-Supply interface energy check value iteration history trace: 1023.070504,1023.070504,1023.070504,1023.070504,1023.070503,1023.070503,1023.070503,1023.070503,1023.070503,1023.070503,
   **   ~~~   ** Supply-to-demand interface deck 1 energy check value iteration history trace: 1905.098850,1905.098850,1905.098850,1905.098850,1905.098850,1905.098850,1905.098850,1905.098850,1905.098850,1905.098850,
   ** Warning ** SimHVAC: Maximum iterations (20) exceeded for all HVAC loops, at ANNUAL, 04/16 09:30 - 09:35
   **   ~~~   ** The solution for one or more of the Air Loop HVAC systems did not appear to converge
   **   ~~~   ** Air System Named = CENTRAL SYSTEM did not converge for mass flow rate
   **   ~~~   ** Check values should be zero. Most Recent values listed first.
   **   ~~~   ** Demand-to-Supply interface mass flow rate check value iteration history trace: 5.900093E-002,5.900093E-002,5.900093E-002,5.900093E-002,5.900093E-002,5.900093E-002,5.900093E-002,5.900093E-002,5.900093E-002,5.900093E-002,
   **   ~~~   ** Supply-to-demand interface deck 1 mass flow rate check value iteration history trace: 5.900093E-002,5.900093E-002,5.900093E-002,5.900093E-002,5.900093E-002,5.900093E-002,5.900093E-002,5.900093E-002,5.900093E-002,5.900093E-002,
   **   ~~~   ** Air System Named = CENTRAL SYSTEM did not converge for energy
   **   ~~~   ** Check values should be zero. Most Recent values listed first.
   **   ~~~   ** Demand-to-Supply interface energy check value iteration history trace: 1164.800442,1164.800442,1164.800441,1164.800441,1164.800441,1164.800440,1164.800440,1164.800440,1164.800439,1164.800439,
   **   ~~~   ** Supply-to-demand interface deck 1 energy check value iteration history trace: 2264.676899,2264.676898,2264.676897,2264.676897,2264.676896,2264.676895,2264.676895,2264.676894,2264.676893,2264.676893,
   **   ~~~   ** Node named ZONE INLET NODE shows oscillating temperatures across iterations with a repeated value of 38.198723
   **   ~~~   ** Node named ZONE INLET NODE temperature [C] iteration history trace (most recent first): 38.198723,38.198723,38.198722,38.198722,38.198721,38.198721,38.198720,38.198720,38.198719,38.198719,
   ** Warning ** SimHVAC: Maximum iterations (20) exceeded for all HVAC loops, at ANNUAL, 05/11 09:30 - 09:45
   **   ~~~   ** The solution for one or more of the Air Loop HVAC systems did not appear to converge
   **   ~~~   ** Air System Named = CENTRAL SYSTEM did not converge for energy
   **   ~~~   ** Check values should be zero. Most Recent values listed first.
   **   ~~~   ** Demand-to-Supply interface energy check value iteration history trace: 125.719085,125.719085,125.719085,125.719085,125.719085,125.719085,125.719085,125.719085,125.719085,125.719085,
   **   ~~~   ** Supply-to-demand interface deck 1 energy check value iteration history trace: 63.577305,63.577305,63.577305,63.577305,63.577305,63.577305,63.577305,63.577305,63.577305,63.577305,
   ** Warning ** SimHVAC: Maximum iterations (20) exceeded for all HVAC loops, at ANNUAL, 05/17 07:51 - 07:54
   **   ~~~   ** The solution for one or more of the Air Loop HVAC systems did not appear to converge
   **   ~~~   ** Air System Named = CENTRAL SYSTEM did not converge for mass flow rate
   **   ~~~   ** Check values should be zero. Most Recent values listed first.
   **   ~~~   ** Demand-to-Supply interface mass flow rate check value iteration history trace: 0.340689,0.340689,0.340689,0.340689,0.340689,0.340689,0.340689,0.340689,0.340689,0.340689,
   **   ~~~   ** Supply-to-demand interface deck 1 mass flow rate check value iteration history trace: 0.340689,0.340689,0.340689,0.340689,0.340689,0.340689,0.340689,0.340689,0.340689,0.340689,
   **   ~~~   ** Air System Named = CENTRAL SYSTEM did not converge for energy
   **   ~~~   ** Check values should be zero. Most Recent values listed first.
   **   ~~~   ** Demand-to-Supply interface energy check value iteration history trace: 8120.032107,8120.032107,8120.032108,8120.032108,8120.032109,8120.032109,8120.032110,8120.032110,8120.032111,8120.032111,
   **   ~~~   ** Supply-to-demand interface deck 1 energy check value iteration history trace: 3800.178297,3800.178297,3800.178297,3800.178298,3800.178298,3800.178298,3800.178298,3800.178299,3800.178299,3800.178299,
   ************* Simulation Error Summary *************
   ** Warning ** The following Report Variables were requested but not generated -- check.rdd file
   **   ~~~   ** Either the IDF did not contain these elements, the variable name is misspelled,
   **   ~~~   ** or the requested variable is an advanced output which requires Output : Diagnostics, DisplayAdvancedReportVariables;
   ************* Key=*, VarName=BASEBOARD TOTAL HEATING ENERGY, Frequency=
   ************* Key=*, VarName=WATER HEATER NATURALGAS ENERGY, Frequency=
   ************* Key=*, VarName=COOLING COIL TOTAL HEATING ENERGY, Frequency=
   ************* There are 34 unused schedules in input.
   ************* There are 388 unused week schedules in input.
   ************* There are 396 unused day schedules in input.
   ************* Use Output:Diagnostics,DisplayUnusedSchedules; to see them.
   *************
   ************* ===== Recurring Error Summary =====
   ************* The following recurring error messages occurred.
   *************
   *************  ** Warning ** "TOTAL HOT WATER LOAD" - Target water temperature should be less than or equal to the hot water temperature error continues...
   *************  **   ~~~   **   This error occurred 151549 total times;
   *************  **   ~~~   **   during Warmup 0 times;
   *************  **   ~~~   **   during Sizing 0 times.
   *************  **   ~~~   **   Max=11.920236  Min=1.575194E-003
   *************
   *************  ** Warning ** SimHVAC: Exceeding Maximum iterations for all HVAC loops, during ANNUAL continues
   *************  **   ~~~   **   This error occurred 13 total times;
   *************  **   ~~~   **   during Warmup 0 times;
   *************  **   ~~~   **   during Sizing 0 times.
   *************
   *************
   ************* ===== Final Error Summary =====
   ************* The following error categories occurred.  Consider correcting or noting.
   ************* Nominally Unused Constructions
   ************* ..The nominally unused constructions warning is provided to alert you to potential conditions that can cause
   ************* ..extra time during simulation. Each construction is calculated by the algorithm indicated in the HeatBalanceAlgorithm
   ************* ..object. You may remove the constructions indicated (when you use the DisplayExtraWarnings option).
   *************
   ************* EnergyPlus Warmup Error Summary. During Warmup: 0 Warning; 0 Severe Errors.
   ************* EnergyPlus Sizing Error Summary. During Sizing: 4 Warning; 0 Severe Errors.
   ************* EnergyPlus Completed Successfully-- 151593 Warning; 0 Severe Errors; Elapsed Time=00hr 01min 34.74sec
