Program Version,EnergyPlus, Version 22.2.0-c249759bad, YMD=2023.09.01 14:56,
   ************* Beginning Zone Sizing Calculations
   ** Warning ** ProcessScheduleInput: Schedule:Constant="ALWAYS ON DISCRETE", Schedule Type Limits Name="ONOFF" not found -- will not be validated
   ** Warning ** Foundation:Kiva="KIVA FOUNDATION", no Interior Horizontal Insulation Material Name defined
   **   ~~~   ** Interior Horizontal Insulation Depth will not be used.
   ** Warning ** CheckUsedConstructions: There are 15 nominally unused constructions in input.
   **   ~~~   ** Each Unused construction is shown.
   ************* Construction=INTERIOR FLOOR
   ************* Construction=INTERIOR WINDOW
   ************* Construction=EXTERIOR DOOR
   ************* Construction=INTERIOR DOOR
   ************* Construction=GABLE CONSTRUCTION
   ************* Construction=CRAWL_FLOOR
   ************* Construction=INSULATED PIPE
   ************* Construction=PLAIN PIPE
   ************* Construction=TDD PIPE
   ************* Construction=TDD DOME
   ************* Construction=TDD DIFFUSER
   ************* Construction=CRAWL WALL
   ************* Construction=CEILING-FLOOR-LAYER
   ************* Construction=SLAB CONSTRUCTION W FULL R10 INSULATION
   ************* Construction=SLAB CONSTRUCTION W FULL R5 INSULATION
   ** Warning ** GetDXCoils: Coil:Heating:DX:SingleSpeed="DX_HEATING_COIL" curve values
   **   ~~~   ** ... Defrost Energy Input Ratio Function of Temperature Curve Name = DEFROSTEIR output is not equal to 1.0 (+ or - 10%) at rated conditions.
   **   ~~~   ** ... Curve output at rated conditions = 0.152
   ************* Beginning System Sizing Calculations
   ************* Beginning Plant Sizing Calculations
   ** Warning ** SizeDXCoil Coil:Cooling:DX:SingleSpeed DX_COOLING_COIL
   **   ~~~   ** ...Gross Rated Total Cooling Capacity [W] will be limited by the maximum rated volume flow per rated total capacity ratio.
   **   ~~~   ** ...DX coil volume flow rate ( m3/s ) = 0.288073
   **   ~~~   ** ...Requested capacity ( W ) = 4228.783
   **   ~~~   ** ...Requested flow/capacity ratio ( m3/s/W ) = 6.812E-005
   **   ~~~   ** ...Maximum flow/capacity ratio ( m3/s/W ) = 6.041E-005
   **   ~~~   ** ...Adjusted capacity ( W ) = 4768.636
   ** Warning ** Coil:WaterHeating:AirToWaterHeatPump:Wrapped "HEAT PUMP WATER HEATER EVAPORATOR": Rated air volume flow rate per watt of rated total water heating capacity is out of range
   **   ~~~   ** Min Rated Vol Flow Per Watt=[4.027E-005], Rated Vol Flow Per Watt=[1.386E-004], Max Rated Vol Flow Per Watt=[8.056E-005]. See Input-Output Reference Manual for valid range.
   ** Warning ** Water heater = WATER HEATER TANK:  Recovery Efficiency and Energy Factor could not be calculated during the test for standard ratings
   **   ~~~   ** Setpoint was never recovered and/or heater never turned on
   ** Warning ** Check input. Pump nominal power or motor efficiency is set to 0, for pump=MAINS PRESSURE
   ** Warning ** AirflowNetwork::Solver::validate_distribution: Heat pump water heater is simulated along with an AirflowNetwork but is not included in the AirflowNetwork.
   ** Warning ** Output:Meter: invalid Key Name="ELECTRIC_RANGE:INTERIOREQUIPMENT:ELECTRICITY" - not found.
   ** Warning ** Output:Meter: invalid Key Name="ELECTRIC_DRYER:INTERIOREQUIPMENT:ELECTRICITY" - not found.
   ** Warning ** Output:Meter: invalid Key Name="HEATRECOVERY:ELECTRICITY" - not found.
   ** Warning ** Output:Meter: invalid Key Name="HEATING:NATURALGAS" - not found.
   ** Warning ** Output:Meter: invalid Key Name="WATERSYSTEMS:NATURALGAS" - not found.
   ** Warning ** Output:Meter: invalid Key Name="PROPANE:FACILITY" - not found.
   ** Warning ** Output:Meter: invalid Key Name="HEATING:PROPANE" - not found.
   ************* Testing Individual Branch Integrity
   ************* All Branches passed integrity testing
   ************* Testing Individual Supply Air Path Integrity
   ************* All Supply Air Paths passed integrity testing
   ************* Testing Individual Return Air Path Integrity
   ************* All Return Air Paths passed integrity testing
   ************* No node connection errors were found.
   ************* Beginning Simulation
   ** Warning ** CalcEquipmentFlowRates: "TOTAL HOT WATER LOAD" - Target water temperature is greater than the hot water temperature by (1.61 C)
   **   ~~~   **  Environment=EXTREME_WINTER, at Simulation time=12/22 06:00 - 06:15
   **   ~~~   ** ...target water temperature     = 53.33 C
   **   ~~~   ** ...hot water temperature        = 51.72 C
   **   ~~~   ** ...Target water temperature should be less than or equal to the hot water temperature. Verify temperature setpoints and schedules.
   ** Warning ** Temperature out of range [-100. to 200.] (PsyPsatFnTemp)
   **   ~~~   **  Routine=PsyTwbFnTdbWPb, Environment=ANNUAL, at Simulation time=03/26 18:00 - 18:04
   **   ~~~   **  Input Temperature=-1469.43
   ** Warning ** SimHVAC: Maximum iterations (20) exceeded for all HVAC loops, at ANNUAL, 04/22 08:45 - 09:00
   **   ~~~   ** The solution for one or more of the Air Loop HVAC systems did not appear to converge
   **   ~~~   ** Air System Named = CENTRAL SYSTEM did not converge for mass flow rate
   **   ~~~   ** Check values should be zero. Most Recent values listed first.
   **   ~~~   ** Demand-to-Supply interface mass flow rate check value iteration history trace: 0.100204,0.100204,0.100204,0.100204,0.100204,0.100204,0.100204,0.100204,0.100204,0.100204,
   **   ~~~   ** Supply-to-demand interface deck 1 mass flow rate check value iteration history trace: 0.100204,0.100204,0.100204,0.100204,0.100204,0.100204,0.100204,0.100204,0.100204,0.100204,
   **   ~~~   ** Air System Named = CENTRAL SYSTEM did not converge for energy
   **   ~~~   ** Check values should be zero. Most Recent values listed first.
   **   ~~~   ** Demand-to-Supply interface energy check value iteration history trace: 1985.357456,1985.357456,1985.357456,1985.357456,1985.357456,1985.357456,1985.357455,1985.357455,1985.357455,1985.357455,
   **   ~~~   ** Supply-to-demand interface deck 1 energy check value iteration history trace: 3331.566160,3331.566160,3331.566160,3331.566159,3331.566159,3331.566159,3331.566159,3331.566159,3331.566159,3331.566158,
   ** Warning ** SimHVAC: Maximum iterations (20) exceeded for all HVAC loops, at ANNUAL, 04/29 09:15 - 09:30
   **   ~~~   ** The solution for one or more of the Air Loop HVAC systems did not appear to converge
   **   ~~~   ** Air System Named = CENTRAL SYSTEM did not converge for mass flow rate
   **   ~~~   ** Check values should be zero. Most Recent values listed first.
   **   ~~~   ** Demand-to-Supply interface mass flow rate check value iteration history trace: 9.246944E-002,9.246944E-002,9.246944E-002,9.246944E-002,9.246944E-002,9.246944E-002,9.246944E-002,9.246944E-002,9.246944E-002,9.246944E-002,
   **   ~~~   ** Supply-to-demand interface deck 1 mass flow rate check value iteration history trace: 9.246944E-002,9.246944E-002,9.246944E-002,9.246944E-002,9.246944E-002,9.246944E-002,9.246944E-002,9.246944E-002,9.246944E-002,9.246944E-002,
   **   ~~~   ** Air System Named = CENTRAL SYSTEM did not converge for energy
   **   ~~~   ** Check values should be zero. Most Recent values listed first.
   **   ~~~   ** Demand-to-Supply interface energy check value iteration history trace: 1818.465809,1818.465809,1818.465809,1818.465808,1818.465808,1818.465808,1818.465808,1818.465808,1818.465808,1818.465808,
   **   ~~~   ** Supply-to-demand interface deck 1 energy check value iteration history trace: 3125.882648,3125.882647,3125.882647,3125.882647,3125.882647,3125.882647,3125.882647,3125.882647,3125.882646,3125.882646,
   ** Warning ** SimHVAC: Maximum iterations (20) exceeded for all HVAC loops, at ANNUAL, 05/08 07:30 - 07:32
   **   ~~~   ** The solution for one or more of the Air Loop HVAC systems did not appear to converge
   **   ~~~   ** Air System Named = CENTRAL SYSTEM did not converge for mass flow rate
   **   ~~~   ** Check values should be zero. Most Recent values listed first.
   **   ~~~   ** Demand-to-Supply interface mass flow rate check value iteration history trace: 0.103446,0.103446,0.103446,0.103446,0.103446,0.103446,0.103446,0.103446,0.103446,0.103446,
   **   ~~~   ** Supply-to-demand interface deck 1 mass flow rate check value iteration history trace: 0.103446,0.103446,0.103446,0.103446,0.103446,0.103446,0.103446,0.103446,0.103446,0.103446,
   **   ~~~   ** Air System Named = CENTRAL SYSTEM did not converge for energy
   **   ~~~   ** Check values should be zero. Most Recent values listed first.
   **   ~~~   ** Demand-to-Supply interface energy check value iteration history trace: 2049.963558,2049.963557,2049.963557,2049.963557,2049.963557,2049.963557,2049.963557,2049.963557,2049.963557,2049.963556,
   **   ~~~   ** Supply-to-demand interface deck 1 energy check value iteration history trace: 3206.834851,3206.834851,3206.834851,3206.834851,3206.834850,3206.834850,3206.834850,3206.834850,3206.834850,3206.834850,
   ** Warning ** SimHVAC: Maximum iterations (20) exceeded for all HVAC loops, at ANNUAL, 05/30 17:15 - 17:30
   **   ~~~   ** The solution for one or more of the Air Loop HVAC systems did not appear to converge
   **   ~~~   ** Air System Named = CENTRAL SYSTEM did not converge for mass flow rate
   **   ~~~   ** Check values should be zero. Most Recent values listed first.
   **   ~~~   ** Demand-to-Supply interface mass flow rate check value iteration history trace: 8.424744E-002,8.424744E-002,8.424744E-002,8.424744E-002,8.424744E-002,8.424744E-002,8.424744E-002,8.424744E-002,8.424744E-002,8.424744E-002,
   **   ~~~   ** Supply-to-demand interface deck 1 mass flow rate check value iteration history trace: 8.424744E-002,8.424744E-002,8.424744E-002,8.424744E-002,8.424744E-002,8.424744E-002,8.424744E-002,8.424744E-002,8.424744E-002,8.424744E-002,
   **   ~~~   ** Air System Named = CENTRAL SYSTEM did not converge for energy
   **   ~~~   ** Check values should be zero. Most Recent values listed first.
   **   ~~~   ** Demand-to-Supply interface energy check value iteration history trace: 1670.701979,1670.701979,1670.701979,1670.701979,1670.701979,1670.701979,1670.701979,1670.701978,1670.701978,1670.701978,
   **   ~~~   ** Supply-to-demand interface deck 1 energy check value iteration history trace: 2828.849606,2828.849606,2828.849606,2828.849606,2828.849606,2828.849606,2828.849605,2828.849605,2828.849605,2828.849605,
   ** Warning ** SimHVAC: Maximum iterations (20) exceeded for all HVAC loops, at ANNUAL, 07/12 06:15 - 06:30
   **   ~~~   ** The solution for one or more of the Air Loop HVAC systems did not appear to converge
   **   ~~~   ** Air System Named = CENTRAL SYSTEM did not converge for mass flow rate
   **   ~~~   ** Check values should be zero. Most Recent values listed first.
   **   ~~~   ** Demand-to-Supply interface mass flow rate check value iteration history trace: 0.117836,0.117836,0.117836,0.117836,0.117836,0.117836,0.117836,0.117836,0.117836,0.117836,
   **   ~~~   ** Supply-to-demand interface deck 1 mass flow rate check value iteration history trace: 0.117836,0.117836,0.117836,0.117836,0.117836,0.117836,0.117836,0.117836,0.117836,0.117836,
   **   ~~~   ** Air System Named = CENTRAL SYSTEM did not converge for energy
   **   ~~~   ** Check values should be zero. Most Recent values listed first.
   **   ~~~   ** Demand-to-Supply interface energy check value iteration history trace: 2799.659516,2799.659517,2799.659517,2799.659518,2799.659519,2799.659520,2799.659520,2799.659521,2799.659522,2799.659522,
   **   ~~~   ** Supply-to-demand interface deck 1 energy check value iteration history trace: 1637.321445,1637.321446,1637.321446,1637.321446,1637.321447,1637.321447,1637.321448,1637.321448,1637.321448,1637.321449,
   ** Warning ** SimHVAC: Maximum iterations (20) exceeded for all HVAC loops, at ANNUAL, 07/12 08:05 - 08:10
   **   ~~~   ** The solution for one or more of the Air Loop HVAC systems did not appear to converge
   **   ~~~   ** Air System Named = CENTRAL SYSTEM did not converge for mass flow rate
   **   ~~~   ** Check values should be zero. Most Recent values listed first.
   **   ~~~   ** Demand-to-Supply interface mass flow rate check value iteration history trace: 0.196345,0.196345,0.196345,0.196345,0.196345,0.196345,0.196345,0.196345,0.196345,0.196345,
   **   ~~~   ** Supply-to-demand interface deck 1 mass flow rate check value iteration history trace: 0.196345,0.196345,0.196345,0.196345,0.196345,0.196345,0.196345,0.196345,0.196345,0.196345,
   **   ~~~   ** Air System Named = CENTRAL SYSTEM did not converge for energy
   **   ~~~   ** Check values should be zero. Most Recent values listed first.
   **   ~~~   ** Demand-to-Supply interface energy check value iteration history trace: 4635.264015,4635.264016,4635.264017,4635.264018,4635.264019,4635.264021,4635.264022,4635.264023,4635.264024,4635.264025,
   **   ~~~   ** Supply-to-demand interface deck 1 energy check value iteration history trace: 2637.458013,2637.458014,2637.458014,2637.458015,2637.458016,2637.458017,2637.458017,2637.458018,2637.458019,2637.458019,
   ** Warning ** SimHVAC: Maximum iterations (20) exceeded for all HVAC loops, at ANNUAL, 07/22 10:24 - 10:26
   **   ~~~   ** The solution for one or more of the Air Loop HVAC systems did not appear to converge
   **   ~~~   ** Air System Named = CENTRAL SYSTEM did not converge for mass flow rate
   **   ~~~   ** Check values should be zero. Most Recent values listed first.
   **   ~~~   ** Demand-to-Supply interface mass flow rate check value iteration history trace: 0.132838,0.132838,0.132838,0.132838,0.132838,0.132838,0.132838,0.132838,0.132838,0.132838,
   **   ~~~   ** Supply-to-demand interface deck 1 mass flow rate check value iteration history trace: 0.132838,0.132838,0.132838,0.132838,0.132838,0.132838,0.132838,0.132838,0.132838,0.132838,
   **   ~~~   ** Air System Named = CENTRAL SYSTEM did not converge for energy
   **   ~~~   ** Check values should be zero. Most Recent values listed first.
   **   ~~~   ** Demand-to-Supply interface energy check value iteration history trace: 3129.636434,3129.636435,3129.636436,3129.636437,3129.636439,3129.636440,3129.636441,3129.636442,3129.636443,3129.636444,
   **   ~~~   ** Supply-to-demand interface deck 1 energy check value iteration history trace: 1756.218698,1756.218698,1756.218699,1756.218700,1756.218700,1756.218701,1756.218702,1756.218702,1756.218703,1756.218704,
   ** Warning ** SimHVAC: Maximum iterations (20) exceeded for all HVAC loops, at ANNUAL, 07/30 10:41 - 10:45
   **   ~~~   ** The solution for one or more of the Air Loop HVAC systems did not appear to converge
   **   ~~~   ** Air System Named = CENTRAL SYSTEM did not converge for mass flow rate
   **   ~~~   ** Check values should be zero. Most Recent values listed first.
   **   ~~~   ** Demand-to-Supply interface mass flow rate check value iteration history trace: 7.676238E-002,7.676238E-002,7.676238E-002,7.676238E-002,7.676238E-002,7.676238E-002,7.676238E-002,7.676238E-002,7.676238E-002,7.676238E-002,
   **   ~~~   ** Supply-to-demand interface deck 1 mass flow rate check value iteration history trace: 7.676238E-002,7.676238E-002,7.676238E-002,7.676238E-002,7.676238E-002,7.676238E-002,7.676238E-002,7.676238E-002,7.676238E-002,7.676238E-002,
   **   ~~~   ** Air System Named = CENTRAL SYSTEM did not converge for energy
   **   ~~~   ** Check values should be zero. Most Recent values listed first.
   **   ~~~   ** Demand-to-Supply interface energy check value iteration history trace: 1807.519348,1807.519349,1807.519349,1807.519349,1807.519349,1807.519350,1807.519350,1807.519350,1807.519350,1807.519350,
   **   ~~~   ** Supply-to-demand interface deck 1 energy check value iteration history trace: 1034.909182,1034.909182,1034.909182,1034.909182,1034.909182,1034.909182,1034.909182,1034.909183,1034.909183,1034.909183,
   ** Warning ** SimHVAC: Maximum iterations (20) exceeded for all HVAC loops, at ANNUAL, 07/31 07:30 - 07:45
   **   ~~~   ** The solution for one or more of the Air Loop HVAC systems did not appear to converge
   **   ~~~   ** Air System Named = CENTRAL SYSTEM did not converge for mass flow rate
   **   ~~~   ** Check values should be zero. Most Recent values listed first.
   **   ~~~   ** Demand-to-Supply interface mass flow rate check value iteration history trace: 5.292441E-002,5.292441E-002,5.292441E-002,5.292441E-002,5.292441E-002,5.292441E-002,5.292441E-002,5.292441E-002,5.292441E-002,5.292441E-002,
   **   ~~~   ** Supply-to-demand interface deck 1 mass flow rate check value iteration history trace: 5.292441E-002,5.292441E-002,5.292441E-002,5.292441E-002,5.292441E-002,5.292441E-002,5.292441E-002,5.292441E-002,5.292441E-002,5.292441E-002,
   **   ~~~   ** Air System Named = CENTRAL SYSTEM did not converge for energy
   **   ~~~   ** Check values should be zero. Most Recent values listed first.
   **   ~~~   ** Demand-to-Supply interface energy check value iteration history trace: 1249.677856,1249.677856,1249.677857,1249.677857,1249.677857,1249.677858,1249.677858,1249.677858,1249.677858,1249.677859,
   **   ~~~   ** Supply-to-demand interface deck 1 energy check value iteration history trace: 666.114922,666.114922,666.114922,666.114922,666.114923,666.114923,666.114923,666.114923,666.114923,666.114923,
   ** Warning ** SimHVAC: Maximum iterations (20) exceeded for all HVAC loops, at ANNUAL, 08/15 08:36 - 08:39
   **   ~~~   ** The solution for one or more of the Air Loop HVAC systems did not appear to converge
   **   ~~~   ** Air System Named = CENTRAL SYSTEM did not converge for mass flow rate
   **   ~~~   ** Check values should be zero. Most Recent values listed first.
   **   ~~~   ** Demand-to-Supply interface mass flow rate check value iteration history trace: 2.745355E-002,2.745355E-002,2.745355E-002,2.745355E-002,2.745355E-002,2.745355E-002,2.745355E-002,2.745355E-002,2.745355E-002,2.745355E-002,
   **   ~~~   ** Supply-to-demand interface deck 1 mass flow rate check value iteration history trace: 2.745355E-002,2.745355E-002,2.745355E-002,2.745355E-002,2.745355E-002,2.745355E-002,2.745355E-002,2.745355E-002,2.745355E-002,2.745355E-002,
   **   ~~~   ** Air System Named = CENTRAL SYSTEM did not converge for energy
   **   ~~~   ** Check values should be zero. Most Recent values listed first.
   **   ~~~   ** Demand-to-Supply interface energy check value iteration history trace: 643.640362,643.640362,643.640362,643.640362,643.640362,643.640362,643.640362,643.640362,643.640362,643.640362,
   **   ~~~   ** Supply-to-demand interface deck 1 energy check value iteration history trace: 339.541757,339.541757,339.541757,339.541757,339.541757,339.541757,339.541757,339.541757,339.541757,339.541757,
   ** Warning ** SimHVAC: Maximum iterations (20) exceeded for all HVAC loops, at ANNUAL, 08/17 20:00 - 20:15
   **   ~~~   ** The solution for one or more of the Air Loop HVAC systems did not appear to converge
   **   ~~~   ** Air System Named = CENTRAL SYSTEM did not converge for mass flow rate
   **   ~~~   ** Check values should be zero. Most Recent values listed first.
   **   ~~~   ** Demand-to-Supply interface mass flow rate check value iteration history trace: 6.408948E-002,6.408948E-002,6.408948E-002,6.408948E-002,6.408948E-002,6.408948E-002,6.408948E-002,6.408948E-002,6.408948E-002,6.408948E-002,
   **   ~~~   ** Supply-to-demand interface deck 1 mass flow rate check value iteration history trace: 6.408948E-002,6.408948E-002,6.408948E-002,6.408948E-002,6.408948E-002,6.408948E-002,6.408948E-002,6.408948E-002,6.408948E-002,6.408948E-002,
   **   ~~~   ** Air System Named = CENTRAL SYSTEM did not converge for energy
   **   ~~~   ** Check values should be zero. Most Recent values listed first.
   **   ~~~   ** Demand-to-Supply interface energy check value iteration history trace: 1495.428880,1495.428881,1495.428881,1495.428881,1495.428881,1495.428881,1495.428881,1495.428882,1495.428882,1495.428882,
   **   ~~~   ** Supply-to-demand interface deck 1 energy check value iteration history trace: 775.068976,775.068976,775.068976,775.068977,775.068977,775.068977,775.068977,775.068977,775.068977,775.068977,
   ** Warning ** SimHVAC: Maximum iterations (20) exceeded for all HVAC loops, at ANNUAL, 08/30 06:00 - 06:15
   **   ~~~   ** The solution for one or more of the Air Loop HVAC systems did not appear to converge
   **   ~~~   ** Air System Named = CENTRAL SYSTEM did not converge for mass flow rate
   **   ~~~   ** Check values should be zero. Most Recent values listed first.
   **   ~~~   ** Demand-to-Supply interface mass flow rate check value iteration history trace: 7.527550E-002,7.527550E-002,7.527550E-002,7.527550E-002,7.527550E-002,7.527550E-002,7.527550E-002,7.527550E-002,7.527550E-002,7.527550E-002,
   **   ~~~   ** Supply-to-demand interface deck 1 mass flow rate check value iteration history trace: 7.527550E-002,7.527550E-002,7.527550E-002,7.527550E-002,7.527550E-002,7.527550E-002,7.527550E-002,7.527550E-002,7.527550E-002,7.527550E-002,
   **   ~~~   ** Air System Named = CENTRAL SYSTEM did not converge for energy
   **   ~~~   ** Check values should be zero. Most Recent values listed first.
   **   ~~~   ** Demand-to-Supply interface energy check value iteration history trace: 1488.340093,1488.340092,1488.340092,1488.340092,1488.340092,1488.340092,1488.340092,1488.340092,1488.340092,1488.340092,
   **   ~~~   ** Supply-to-demand interface deck 1 energy check value iteration history trace: 2515.136542,2515.136542,2515.136541,2515.136541,2515.136541,2515.136541,2515.136541,2515.136541,2515.136541,2515.136540,
   ** Warning ** SimHVAC: Maximum iterations (20) exceeded for all HVAC loops, at ANNUAL, 09/02 09:39 - 09:42
   **   ~~~   ** The solution for one or more of the Air Loop HVAC systems did not appear to converge
   **   ~~~   ** Air System Named = CENTRAL SYSTEM did not converge for mass flow rate
   **   ~~~   ** Check values should be zero. Most Recent values listed first.
   **   ~~~   ** Demand-to-Supply interface mass flow rate check value iteration history trace: 0.101369,0.101369,0.101369,0.101369,0.101369,0.101369,0.101369,0.101369,0.101369,0.101369,
   **   ~~~   ** Supply-to-demand interface deck 1 mass flow rate check value iteration history trace: 0.101369,0.101369,0.101369,0.101369,0.101369,0.101369,0.101369,0.101369,0.101369,0.101369,
   **   ~~~   ** Air System Named = CENTRAL SYSTEM did not converge for energy
   **   ~~~   ** Check values should be zero. Most Recent values listed first.
   **   ~~~   ** Demand-to-Supply interface energy check value iteration history trace: 2391.683204,2391.683205,2391.683205,2391.683205,2391.683205,2391.683205,2391.683206,2391.683206,2391.683206,2391.683206,
   **   ~~~   ** Supply-to-demand interface deck 1 energy check value iteration history trace: 1139.107977,1139.107977,1139.107977,1139.107977,1139.107977,1139.107978,1139.107978,1139.107978,1139.107978,1139.107978,
   ** Warning ** SimHVAC: Maximum iterations (20) exceeded for all HVAC loops, at ANNUAL, 09/27 08:00 - 08:05
   **   ~~~   ** The solution for one or more of the Air Loop HVAC systems did not appear to converge
   **   ~~~   ** Air System Named = CENTRAL SYSTEM did not converge for mass flow rate
   **   ~~~   ** Check values should be zero. Most Recent values listed first.
   **   ~~~   ** Demand-to-Supply interface mass flow rate check value iteration history trace: 7.038608E-002,7.038608E-002,7.038608E-002,7.038608E-002,7.038608E-002,7.038608E-002,7.038608E-002,7.038608E-002,7.038608E-002,7.038608E-002,
   **   ~~~   ** Supply-to-demand interface deck 1 mass flow rate check value iteration history trace: 7.038608E-002,7.038608E-002,7.038608E-002,7.038608E-002,7.038608E-002,7.038608E-002,7.038608E-002,7.038608E-002,7.038608E-002,7.038608E-002,
   **   ~~~   ** Air System Named = CENTRAL SYSTEM did not converge for energy
   **   ~~~   ** Check values should be zero. Most Recent values listed first.
   **   ~~~   ** Demand-to-Supply interface energy check value iteration history trace: 1391.357930,1391.357930,1391.357930,1391.357930,1391.357930,1391.357930,1391.357930,1391.357930,1391.357930,1391.357929,
   **   ~~~   ** Supply-to-demand interface deck 1 energy check value iteration history trace: 2442.638198,2442.638198,2442.638198,2442.638198,2442.638198,2442.638198,2442.638198,2442.638198,2442.638198,2442.638197,
   ************* Simulation Error Summary *************
   ** Warning ** The following Report Variables were requested but not generated -- check.rdd file
   **   ~~~   ** Either the IDF did not contain these elements, the variable name is misspelled,
   **   ~~~   ** or the requested variable is an advanced output which requires Output : Diagnostics, DisplayAdvancedReportVariables;
   ************* Key=*, VarName=BASEBOARD TOTAL HEATING ENERGY, Frequency=
   ************* Key=*, VarName=WATER HEATER NATURALGAS ENERGY, Frequency=
   ************* Key=*, VarName=COOLING COIL TOTAL HEATING ENERGY, Frequency=
   ************* There are 34 unused schedules in input.
   ************* There are 388 unused week schedules in input.
   ************* There are 396 unused day schedules in input.
   ************* Use Output:Diagnostics,DisplayUnusedSchedules; to see them.
   *************
   ************* ===== Recurring Error Summary =====
   ************* The following recurring error messages occurred.
   *************
   *************  ** Warning ** "TOTAL HOT WATER LOAD" - Target water temperature should be less than or equal to the hot water temperature error continues...
   *************  **   ~~~   **   This error occurred 92221 total times;
   *************  **   ~~~   **   during Warmup 0 times;
   *************  **   ~~~   **   during Sizing 0 times.
   *************  **   ~~~   **   Max=12.011558  Min=5.877152E-005
   *************
   *************  ** Warning ** Temperature out of range [-100. to 200.] (PsyPsatFnTemp)
   *************  **   ~~~   **   This error occurred 1 total times;
   *************  **   ~~~   **   during Warmup 0 times;
   *************  **   ~~~   **   during Sizing 0 times.
   *************  **   ~~~   **   Max=-1469.435303 C  Min=-1469.435303 C
   *************
   *************  ** Warning ** SimHVAC: Exceeding Maximum iterations for all HVAC loops, during ANNUAL continues
   *************  **   ~~~   **   This error occurred 2 total times;
   *************  **   ~~~   **   during Warmup 0 times;
   *************  **   ~~~   **   during Sizing 0 times.
   *************
   *************
   ************* ===== Final Error Summary =====
   ************* The following error categories occurred.  Consider correcting or noting.
   ************* Nominally Unused Constructions
   ************* ..The nominally unused constructions warning is provided to alert you to potential conditions that can cause
   ************* ..extra time during simulation. Each construction is calculated by the algorithm indicated in the HeatBalanceAlgorithm
   ************* ..object. You may remove the constructions indicated (when you use the DisplayExtraWarnings option).
   *************
   ************* EnergyPlus Warmup Error Summary. During Warmup: 0 Warning; 0 Severe Errors.
   ************* EnergyPlus Sizing Error Summary. During Sizing: 4 Warning; 0 Severe Errors.
   ************* EnergyPlus Completed Successfully-- 92256 Warning; 0 Severe Errors; Elapsed Time=00hr 05min  7.35sec
