Program Version,EnergyPlus, Version 22.2.0-c249759bad, YMD=2023.09.01 19:54,
   ************* Beginning Zone Sizing Calculations
   ** Warning ** ProcessScheduleInput: Schedule:Constant="ALWAYS ON DISCRETE", Schedule Type Limits Name="ONOFF" not found -- will not be validated
   ** Warning ** Foundation:Kiva="KIVA FOUNDATION", no Interior Horizontal Insulation Material Name defined
   **   ~~~   ** Interior Horizontal Insulation Depth will not be used.
   ** Warning ** CheckUsedConstructions: There are 15 nominally unused constructions in input.
   **   ~~~   ** Each Unused construction is shown.
   ************* Construction=INTERIOR FLOOR
   ************* Construction=INTERIOR WINDOW
   ************* Construction=EXTERIOR DOOR
   ************* Construction=INTERIOR DOOR
   ************* Construction=GABLE CONSTRUCTION
   ************* Construction=CRAWL_FLOOR
   ************* Construction=INSULATED PIPE
   ************* Construction=PLAIN PIPE
   ************* Construction=TDD PIPE
   ************* Construction=TDD DOME
   ************* Construction=TDD DIFFUSER
   ************* Construction=CRAWL WALL
   ************* Construction=CEILING-FLOOR-LAYER
   ************* Construction=SLAB CONSTRUCTION W FULL R10 INSULATION
   ************* Construction=SLAB CONSTRUCTION W FULL R5 INSULATION
   ** Warning ** GetDXCoils: Coil:Heating:DX:SingleSpeed="DX_HEATING_COIL" curve values
   **   ~~~   ** ... Defrost Energy Input Ratio Function of Temperature Curve Name = DEFROSTEIR output is not equal to 1.0 (+ or - 10%) at rated conditions.
   **   ~~~   ** ... Curve output at rated conditions = 0.152
   ************* Beginning System Sizing Calculations
   ************* Beginning Plant Sizing Calculations
   ** Warning ** SizeDXCoil Coil:Cooling:DX:SingleSpeed DX_COOLING_COIL
   **   ~~~   ** ...Gross Rated Total Cooling Capacity [W] will be limited by the maximum rated volume flow per rated total capacity ratio.
   **   ~~~   ** ...DX coil volume flow rate ( m3/s ) = 0.582146
   **   ~~~   ** ...Requested capacity ( W ) = 8304.361
   **   ~~~   ** ...Requested flow/capacity ratio ( m3/s/W ) = 7.010E-005
   **   ~~~   ** ...Maximum flow/capacity ratio ( m3/s/W ) = 6.041E-005
   **   ~~~   ** ...Adjusted capacity ( W ) = 9636.585
   ** Warning ** Coil:WaterHeating:AirToWaterHeatPump:Wrapped "HEAT PUMP WATER HEATER EVAPORATOR": Rated air volume flow rate per watt of rated total water heating capacity is out of range
   **   ~~~   ** Min Rated Vol Flow Per Watt=[4.027E-005], Rated Vol Flow Per Watt=[1.510E-004], Max Rated Vol Flow Per Watt=[8.056E-005]. See Input-Output Reference Manual for valid range.
   ************* SizeFan: : Potential issue with equipment sizing for Fan:OnOff HEAT PUMP WATER HEATER FAN
   **   ~~~   ** User-Specified Maximum Flow Rate [m3/s] = 0.22653
   **   ~~~   ** differs from Design Size Maximum Flow Rate [m3/s] = 7.55250E-002
   **   ~~~   ** This may, or may not, indicate mismatched component sizes.
   **   ~~~   ** Verify that the value entered is intended and is consistent with other components.
   ** Warning ** Water heater = WATER HEATER TANK:  Recovery Efficiency and Energy Factor could not be calculated during the test for standard ratings
   **   ~~~   ** Setpoint was never recovered and/or heater never turned on
   ** Warning ** Check input. Pump nominal power or motor efficiency is set to 0, for pump=MAINS PRESSURE
   ** Warning ** Output:Meter: invalid Key Name="ELECTRIC_RANGE:INTERIOREQUIPMENT:ELECTRICITY" - not found.
   ** Warning ** Output:Meter: invalid Key Name="ELECTRIC_DRYER:INTERIOREQUIPMENT:ELECTRICITY" - not found.
   ** Warning ** Output:Meter: invalid Key Name="HEATRECOVERY:ELECTRICITY" - not found.
   ** Warning ** Output:Meter: invalid Key Name="HEATING:NATURALGAS" - not found.
   ** Warning ** Output:Meter: invalid Key Name="WATERSYSTEMS:NATURALGAS" - not found.
   ** Warning ** Output:Meter: invalid Key Name="PROPANE:FACILITY" - not found.
   ** Warning ** Output:Meter: invalid Key Name="HEATING:PROPANE" - not found.
   ************* Testing Individual Branch Integrity
   ************* All Branches passed integrity testing
   ************* Testing Individual Supply Air Path Integrity
   ************* All Supply Air Paths passed integrity testing
   ************* Testing Individual Return Air Path Integrity
   ************* All Return Air Paths passed integrity testing
   ************* No node connection errors were found.
   ************* Beginning Simulation
   ** Warning ** AirflowNetwork::Solver::validate_distribution: Heat pump water heater is simulated along with an AirflowNetwork but is not included in the AirflowNetwork.
   ** Warning ** CalcEquipmentFlowRates: "TOTAL HOT WATER LOAD" - Target water temperature is greater than the hot water temperature by (3.83 C)
   **   ~~~   **  Environment=EXTREME_WINTER, at Simulation time=12/22 06:00 - 06:15
   **   ~~~   ** ...target water temperature     = 53.33 C
   **   ~~~   ** ...hot water temperature        = 49.50 C
   **   ~~~   ** ...Target water temperature should be less than or equal to the hot water temperature. Verify temperature setpoints and schedules.
   ** Warning ** SimHVAC: Maximum iterations (20) exceeded for all HVAC loops, at ANNUAL, 01/01 19:45 - 20:00
   **   ~~~   ** The solution for one or more of the Air Loop HVAC systems did not appear to converge
   **   ~~~   ** Air System Named = CENTRAL SYSTEM did not converge for mass flow rate
   **   ~~~   ** Check values should be zero. Most Recent values listed first.
   **   ~~~   ** Demand-to-Supply interface mass flow rate check value iteration history trace: 8.192247E-002,8.192247E-002,8.192247E-002,8.192247E-002,8.192247E-002,8.192247E-002,8.192247E-002,8.192247E-002,8.192247E-002,8.192247E-002,
   **   ~~~   ** Supply-to-demand interface deck 1 mass flow rate check value iteration history trace: 8.192247E-002,8.192247E-002,8.192247E-002,8.192247E-002,8.192247E-002,8.192247E-002,8.192247E-002,8.192247E-002,8.192247E-002,8.192247E-002,
   **   ~~~   ** Air System Named = CENTRAL SYSTEM did not converge for energy
   **   ~~~   ** Check values should be zero. Most Recent values listed first.
   **   ~~~   ** Demand-to-Supply interface energy check value iteration history trace: 1604.676314,1604.676314,1604.676314,1604.676314,1604.676314,1604.676313,1604.676313,1604.676313,1604.676313,1604.676313,
   **   ~~~   ** Supply-to-demand interface deck 1 energy check value iteration history trace: 2481.836445,2481.836445,2481.836445,2481.836444,2481.836444,2481.836444,2481.836444,2481.836444,2481.836444,2481.836443,
   ** Warning ** SimHVAC: Maximum iterations (20) exceeded for all HVAC loops, at ANNUAL, 01/11 10:32 - 10:35
   **   ~~~   ** The solution for one or more of the Air Loop HVAC systems did not appear to converge
   **   ~~~   ** Air System Named = CENTRAL SYSTEM did not converge for mass flow rate
   **   ~~~   ** Check values should be zero. Most Recent values listed first.
   **   ~~~   ** Demand-to-Supply interface mass flow rate check value iteration history trace: 6.721813E-002,6.721813E-002,6.721813E-002,6.721813E-002,6.721813E-002,6.721813E-002,6.721813E-002,6.721813E-002,6.721813E-002,6.721813E-002,
   **   ~~~   ** Supply-to-demand interface deck 1 mass flow rate check value iteration history trace: 6.721813E-002,6.721813E-002,6.721813E-002,6.721813E-002,6.721813E-002,6.721813E-002,6.721813E-002,6.721813E-002,6.721813E-002,6.721813E-002,
   **   ~~~   ** Air System Named = CENTRAL SYSTEM did not converge for energy
   **   ~~~   ** Check values should be zero. Most Recent values listed first.
   **   ~~~   ** Demand-to-Supply interface energy check value iteration history trace: 1330.307980,1330.307980,1330.307979,1330.307979,1330.307979,1330.307979,1330.307979,1330.307979,1330.307979,1330.307979,
   **   ~~~   ** Supply-to-demand interface deck 1 energy check value iteration history trace: 2094.192550,2094.192550,2094.192550,2094.192550,2094.192550,2094.192550,2094.192550,2094.192550,2094.192549,2094.192549,
   ** Warning ** SimHVAC: Maximum iterations (20) exceeded for all HVAC loops, at ANNUAL, 01/22 10:00 - 10:15
   **   ~~~   ** The solution for one or more of the Air Loop HVAC systems did not appear to converge
   **   ~~~   ** Air System Named = CENTRAL SYSTEM did not converge for mass flow rate
   **   ~~~   ** Check values should be zero. Most Recent values listed first.
   **   ~~~   ** Demand-to-Supply interface mass flow rate check value iteration history trace: 7.120688E-002,7.120688E-002,7.120688E-002,7.120688E-002,7.120688E-002,7.120688E-002,7.120688E-002,7.120688E-002,7.120688E-002,7.120688E-002,
   **   ~~~   ** Supply-to-demand interface deck 1 mass flow rate check value iteration history trace: 7.120688E-002,7.120688E-002,7.120688E-002,7.120688E-002,7.120688E-002,7.120688E-002,7.120688E-002,7.120688E-002,7.120688E-002,7.120688E-002,
   **   ~~~   ** Air System Named = CENTRAL SYSTEM did not converge for energy
   **   ~~~   ** Check values should be zero. Most Recent values listed first.
   **   ~~~   ** Demand-to-Supply interface energy check value iteration history trace: 1411.097966,1411.097966,1411.097966,1411.097966,1411.097966,1411.097966,1411.097966,1411.097966,1411.097965,1411.097965,
   **   ~~~   ** Supply-to-demand interface deck 1 energy check value iteration history trace: 2531.410463,2531.410463,2531.410463,2531.410463,2531.410463,2531.410463,2531.410463,2531.410463,2531.410463,2531.410462,
   ** Warning ** SimHVAC: Maximum iterations (20) exceeded for all HVAC loops, at ANNUAL, 01/29 09:08 - 09:10
   **   ~~~   ** The solution for one or more of the Air Loop HVAC systems did not appear to converge
   **   ~~~   ** Air System Named = CENTRAL SYSTEM did not converge for mass flow rate
   **   ~~~   ** Check values should be zero. Most Recent values listed first.
   **   ~~~   ** Demand-to-Supply interface mass flow rate check value iteration history trace: 5.828306E-002,5.828306E-002,5.828306E-002,5.828306E-002,5.828306E-002,5.828306E-002,5.828306E-002,5.828306E-002,5.828306E-002,5.828306E-002,
   **   ~~~   ** Supply-to-demand interface deck 1 mass flow rate check value iteration history trace: 5.828306E-002,5.828306E-002,5.828306E-002,5.828306E-002,5.828306E-002,5.828306E-002,5.828306E-002,5.828306E-002,5.828306E-002,5.828306E-002,
   **   ~~~   ** Air System Named = CENTRAL SYSTEM did not converge for energy
   **   ~~~   ** Check values should be zero. Most Recent values listed first.
   **   ~~~   ** Demand-to-Supply interface energy check value iteration history trace: 1153.830454,1153.830454,1153.830454,1153.830454,1153.830454,1153.830454,1153.830454,1153.830454,1153.830454,1153.830454,
   **   ~~~   ** Supply-to-demand interface deck 1 energy check value iteration history trace: 2227.395097,2227.395096,2227.395096,2227.395096,2227.395096,2227.395096,2227.395096,2227.395096,2227.395096,2227.395096,
   ** Warning ** SimHVAC: Maximum iterations (20) exceeded for all HVAC loops, at ANNUAL, 02/01 16:45 - 16:50
   **   ~~~   ** The solution for one or more of the Air Loop HVAC systems did not appear to converge
   **   ~~~   ** Air System Named = CENTRAL SYSTEM did not converge for mass flow rate
   **   ~~~   ** Check values should be zero. Most Recent values listed first.
   **   ~~~   ** Demand-to-Supply interface mass flow rate check value iteration history trace: 9.034409E-002,9.034409E-002,9.034409E-002,9.034409E-002,9.034409E-002,9.034409E-002,9.034409E-002,9.034409E-002,9.034409E-002,9.034409E-002,
   **   ~~~   ** Supply-to-demand interface deck 1 mass flow rate check value iteration history trace: 9.034409E-002,9.034409E-002,9.034409E-002,9.034409E-002,9.034409E-002,9.034409E-002,9.034409E-002,9.034409E-002,9.034409E-002,9.034409E-002,
   **   ~~~   ** Air System Named = CENTRAL SYSTEM did not converge for energy
   **   ~~~   ** Check values should be zero. Most Recent values listed first.
   **   ~~~   ** Demand-to-Supply interface energy check value iteration history trace: 1772.863945,1772.863945,1772.863945,1772.863944,1772.863944,1772.863944,1772.863944,1772.863944,1772.863944,1772.863944,
   **   ~~~   ** Supply-to-demand interface deck 1 energy check value iteration history trace: 2778.943495,2778.943495,2778.943495,2778.943495,2778.943494,2778.943494,2778.943494,2778.943494,2778.943494,2778.943494,
   ** Warning ** SimHVAC: Maximum iterations (20) exceeded for all HVAC loops, at ANNUAL, 02/05 09:45 - 10:00
   **   ~~~   ** The solution for one or more of the Air Loop HVAC systems did not appear to converge
   **   ~~~   ** Air System Named = CENTRAL SYSTEM did not converge for mass flow rate
   **   ~~~   ** Check values should be zero. Most Recent values listed first.
   **   ~~~   ** Demand-to-Supply interface mass flow rate check value iteration history trace: 7.408034E-002,7.408034E-002,7.408034E-002,7.408034E-002,7.408034E-002,7.408034E-002,7.408034E-002,7.408034E-002,7.408034E-002,7.408034E-002,
   **   ~~~   ** Supply-to-demand interface deck 1 mass flow rate check value iteration history trace: 7.408034E-002,7.408034E-002,7.408034E-002,7.408034E-002,7.408034E-002,7.408034E-002,7.408034E-002,7.408034E-002,7.408034E-002,7.408034E-002,
   **   ~~~   ** Air System Named = CENTRAL SYSTEM did not converge for energy
   **   ~~~   ** Check values should be zero. Most Recent values listed first.
   **   ~~~   ** Demand-to-Supply interface energy check value iteration history trace: 1467.975061,1467.975061,1467.975061,1467.975061,1467.975061,1467.975060,1467.975060,1467.975060,1467.975060,1467.975060,
   **   ~~~   ** Supply-to-demand interface deck 1 energy check value iteration history trace: 2573.981283,2573.981283,2573.981283,2573.981283,2573.981283,2573.981283,2573.981283,2573.981283,2573.981283,2573.981282,
   ** Warning ** SimHVAC: Maximum iterations (20) exceeded for all HVAC loops, at ANNUAL, 02/10 18:15 - 18:20
   **   ~~~   ** The solution for one or more of the Air Loop HVAC systems did not appear to converge
   **   ~~~   ** Air System Named = CENTRAL SYSTEM did not converge for mass flow rate
   **   ~~~   ** Check values should be zero. Most Recent values listed first.
   **   ~~~   ** Demand-to-Supply interface mass flow rate check value iteration history trace: 8.939108E-002,8.939108E-002,8.939108E-002,8.939108E-002,8.939108E-002,8.939108E-002,8.939108E-002,8.939108E-002,8.939108E-002,8.939108E-002,
   **   ~~~   ** Supply-to-demand interface deck 1 mass flow rate check value iteration history trace: 8.939108E-002,8.939108E-002,8.939108E-002,8.939108E-002,8.939108E-002,8.939108E-002,8.939108E-002,8.939108E-002,8.939108E-002,8.939108E-002,
   **   ~~~   ** Air System Named = CENTRAL SYSTEM did not converge for energy
   **   ~~~   ** Check values should be zero. Most Recent values listed first.
   **   ~~~   ** Demand-to-Supply interface energy check value iteration history trace: 1767.504828,1767.504828,1767.504828,1767.504828,1767.504827,1767.504827,1767.504827,1767.504827,1767.504827,1767.504827,
   **   ~~~   ** Supply-to-demand interface deck 1 energy check value iteration history trace: 2739.309221,2739.309221,2739.309221,2739.309221,2739.309221,2739.309220,2739.309220,2739.309220,2739.309220,2739.309220,
   ** Warning ** SimHVAC: Maximum iterations (20) exceeded for all HVAC loops, at ANNUAL, 03/03 08:30 - 08:32
   **   ~~~   ** The solution for one or more of the Air Loop HVAC systems did not appear to converge
   **   ~~~   ** Air System Named = CENTRAL SYSTEM did not converge for mass flow rate
   **   ~~~   ** Check values should be zero. Most Recent values listed first.
   **   ~~~   ** Demand-to-Supply interface mass flow rate check value iteration history trace: 5.494175E-002,5.494175E-002,5.494175E-002,5.494175E-002,5.494175E-002,5.494175E-002,5.494175E-002,5.494175E-002,5.494175E-002,5.494175E-002,
   **   ~~~   ** Supply-to-demand interface deck 1 mass flow rate check value iteration history trace: 5.494175E-002,5.494175E-002,5.494175E-002,5.494175E-002,5.494175E-002,5.494175E-002,5.494175E-002,5.494175E-002,5.494175E-002,5.494175E-002,
   **   ~~~   ** Air System Named = CENTRAL SYSTEM did not converge for energy
   **   ~~~   ** Check values should be zero. Most Recent values listed first.
   **   ~~~   ** Demand-to-Supply interface energy check value iteration history trace: 1085.974688,1085.974688,1085.974688,1085.974688,1085.974688,1085.974688,1085.974688,1085.974688,1085.974688,1085.974688,
   **   ~~~   ** Supply-to-demand interface deck 1 energy check value iteration history trace: 2150.686084,2150.686084,2150.686084,2150.686084,2150.686084,2150.686084,2150.686084,2150.686084,2150.686084,2150.686084,
   ** Warning ** SimHVAC: Maximum iterations (20) exceeded for all HVAC loops, at ANNUAL, 04/03 07:45 - 07:48
   **   ~~~   ** The solution for one or more of the Air Loop HVAC systems did not appear to converge
   **   ~~~   ** Air System Named = CENTRAL SYSTEM did not converge for mass flow rate
   **   ~~~   ** Check values should be zero. Most Recent values listed first.
   **   ~~~   ** Demand-to-Supply interface mass flow rate check value iteration history trace: 6.472816E-002,6.472816E-002,6.472816E-002,6.472816E-002,6.472816E-002,6.472816E-002,6.472816E-002,6.472816E-002,6.472816E-002,6.472816E-002,
   **   ~~~   ** Supply-to-demand interface deck 1 mass flow rate check value iteration history trace: 6.472816E-002,6.472816E-002,6.472816E-002,6.472816E-002,6.472816E-002,6.472816E-002,6.472816E-002,6.472816E-002,6.472816E-002,6.472816E-002,
   **   ~~~   ** Air System Named = CENTRAL SYSTEM did not converge for energy
   **   ~~~   ** Check values should be zero. Most Recent values listed first.
   **   ~~~   ** Demand-to-Supply interface energy check value iteration history trace: 1282.649195,1282.649195,1282.649195,1282.649195,1282.649195,1282.649194,1282.649194,1282.649194,1282.649194,1282.649194,
   **   ~~~   ** Supply-to-demand interface deck 1 energy check value iteration history trace: 2402.448837,2402.448837,2402.448837,2402.448837,2402.448837,2402.448837,2402.448837,2402.448837,2402.448837,2402.448836,
   ** Warning ** SimHVAC: Maximum iterations (20) exceeded for all HVAC loops, at ANNUAL, 04/23 00:50 - 00:55
   **   ~~~   ** The solution for one or more of the Air Loop HVAC systems did not appear to converge
   **   ~~~   ** Air System Named = CENTRAL SYSTEM did not converge for mass flow rate
   **   ~~~   ** Check values should be zero. Most Recent values listed first.
   **   ~~~   ** Demand-to-Supply interface mass flow rate check value iteration history trace: 4.919678E-002,4.919678E-002,4.919678E-002,4.919678E-002,4.919678E-002,4.919678E-002,4.919678E-002,4.919678E-002,4.919678E-002,4.919678E-002,
   **   ~~~   ** Supply-to-demand interface deck 1 mass flow rate check value iteration history trace: 4.919678E-002,4.919678E-002,4.919678E-002,4.919678E-002,4.919678E-002,4.919678E-002,4.919678E-002,4.919678E-002,4.919678E-002,4.919678E-002,
   **   ~~~   ** Air System Named = CENTRAL SYSTEM did not converge for energy
   **   ~~~   ** Check values should be zero. Most Recent values listed first.
   **   ~~~   ** Demand-to-Supply interface energy check value iteration history trace: 1218.036082,1218.036082,1218.036082,1218.036082,1218.036082,1218.036082,1218.036082,1218.036082,1218.036082,1218.036082,
   **   ~~~   ** Supply-to-demand interface deck 1 energy check value iteration history trace: 464.583430,464.583430,464.583430,464.583430,464.583430,464.583430,464.583430,464.583430,464.583430,464.583430,
   ** Warning ** SimHVAC: Maximum iterations (20) exceeded for all HVAC loops, at ANNUAL, 11/14 12:53 - 13:00
   **   ~~~   ** The solution for one or more of the Air Loop HVAC systems did not appear to converge
   **   ~~~   ** Air System Named = CENTRAL SYSTEM did not converge for mass flow rate
   **   ~~~   ** Check values should be zero. Most Recent values listed first.
   **   ~~~   ** Demand-to-Supply interface mass flow rate check value iteration history trace: 6.303104E-002,6.303104E-002,6.303104E-002,6.303104E-002,6.303104E-002,6.303104E-002,6.303104E-002,6.303104E-002,6.303104E-002,6.303104E-002,
   **   ~~~   ** Supply-to-demand interface deck 1 mass flow rate check value iteration history trace: 6.303104E-002,6.303104E-002,6.303104E-002,6.303104E-002,6.303104E-002,6.303104E-002,6.303104E-002,6.303104E-002,6.303104E-002,6.303104E-002,
   **   ~~~   ** Air System Named = CENTRAL SYSTEM did not converge for energy
   **   ~~~   ** Check values should be zero. Most Recent values listed first.
   **   ~~~   ** Demand-to-Supply interface energy check value iteration history trace: 1472.508910,1472.508910,1472.508910,1472.508910,1472.508910,1472.508910,1472.508910,1472.508910,1472.508910,1472.508910,
   **   ~~~   ** Supply-to-demand interface deck 1 energy check value iteration history trace: 639.508238,639.508238,639.508238,639.508238,639.508238,639.508238,639.508238,639.508238,639.508238,639.508238,
   ** Warning ** SimHVAC: Maximum iterations (20) exceeded for all HVAC loops, at ANNUAL, 11/15 07:30 - 07:34
   **   ~~~   ** The solution for one or more of the Air Loop HVAC systems did not appear to converge
   **   ~~~   ** Air System Named = CENTRAL SYSTEM did not converge for mass flow rate
   **   ~~~   ** Check values should be zero. Most Recent values listed first.
   **   ~~~   ** Demand-to-Supply interface mass flow rate check value iteration history trace: 5.767102E-002,5.767102E-002,5.767102E-002,5.767102E-002,5.767102E-002,5.767102E-002,5.767102E-002,5.767102E-002,5.767102E-002,5.767102E-002,
   **   ~~~   ** Supply-to-demand interface deck 1 mass flow rate check value iteration history trace: 5.767102E-002,5.767102E-002,5.767102E-002,5.767102E-002,5.767102E-002,5.767102E-002,5.767102E-002,5.767102E-002,5.767102E-002,5.767102E-002,
   **   ~~~   ** Air System Named = CENTRAL SYSTEM did not converge for energy
   **   ~~~   ** Check values should be zero. Most Recent values listed first.
   **   ~~~   ** Demand-to-Supply interface energy check value iteration history trace: 1139.695246,1139.695246,1139.695246,1139.695246,1139.695246,1139.695246,1139.695246,1139.695246,1139.695246,1139.695246,
   **   ~~~   ** Supply-to-demand interface deck 1 energy check value iteration history trace: 2089.510942,2089.510942,2089.510942,2089.510942,2089.510942,2089.510942,2089.510942,2089.510942,2089.510942,2089.510942,
   ** Warning ** SimHVAC: Maximum iterations (20) exceeded for all HVAC loops, at ANNUAL, 11/15 07:41 - 07:45
   **   ~~~   ** The solution for one or more of the Air Loop HVAC systems did not appear to converge
   **   ~~~   ** Air System Named = CENTRAL SYSTEM did not converge for mass flow rate
   **   ~~~   ** Check values should be zero. Most Recent values listed first.
   **   ~~~   ** Demand-to-Supply interface mass flow rate check value iteration history trace: 5.732775E-002,5.732775E-002,5.732775E-002,5.732775E-002,5.732775E-002,5.732775E-002,5.732775E-002,5.732775E-002,5.732775E-002,5.732775E-002,
   **   ~~~   ** Supply-to-demand interface deck 1 mass flow rate check value iteration history trace: 5.732775E-002,5.732775E-002,5.732775E-002,5.732775E-002,5.732775E-002,5.732775E-002,5.732775E-002,5.732775E-002,5.732775E-002,5.732775E-002,
   **   ~~~   ** Air System Named = CENTRAL SYSTEM did not converge for energy
   **   ~~~   ** Check values should be zero. Most Recent values listed first.
   **   ~~~   ** Demand-to-Supply interface energy check value iteration history trace: 1134.948105,1134.948105,1134.948105,1134.948105,1134.948105,1134.948105,1134.948105,1134.948104,1134.948104,1134.948104,
   **   ~~~   ** Supply-to-demand interface deck 1 energy check value iteration history trace: 2079.208073,2079.208073,2079.208073,2079.208072,2079.208072,2079.208072,2079.208072,2079.208072,2079.208072,2079.208072,
   ** Warning ** SimHVAC: Maximum iterations (20) exceeded for all HVAC loops, at ANNUAL, 11/18 09:45 - 09:49
   **   ~~~   ** The solution for one or more of the Air Loop HVAC systems did not appear to converge
   **   ~~~   ** Air System Named = CENTRAL SYSTEM did not converge for mass flow rate
   **   ~~~   ** Check values should be zero. Most Recent values listed first.
   **   ~~~   ** Demand-to-Supply interface mass flow rate check value iteration history trace: 5.410170E-002,5.410170E-002,5.410170E-002,5.410170E-002,5.410170E-002,5.410170E-002,5.410170E-002,5.410170E-002,5.410170E-002,5.410170E-002,
   **   ~~~   ** Supply-to-demand interface deck 1 mass flow rate check value iteration history trace: 5.410170E-002,5.410170E-002,5.410170E-002,5.410170E-002,5.410170E-002,5.410170E-002,5.410170E-002,5.410170E-002,5.410170E-002,5.410170E-002,
   **   ~~~   ** Air System Named = CENTRAL SYSTEM did not converge for energy
   **   ~~~   ** Check values should be zero. Most Recent values listed first.
   **   ~~~   ** Demand-to-Supply interface energy check value iteration history trace: 1072.125043,1072.125043,1072.125043,1072.125043,1072.125043,1072.125043,1072.125043,1072.125043,1072.125043,1072.125043,
   **   ~~~   ** Supply-to-demand interface deck 1 energy check value iteration history trace: 1993.967717,1993.967717,1993.967717,1993.967717,1993.967717,1993.967717,1993.967717,1993.967717,1993.967717,1993.967717,
   ************* Simulation Error Summary *************
   ** Warning ** The following Report Variables were requested but not generated -- check.rdd file
   **   ~~~   ** Either the IDF did not contain these elements, the variable name is misspelled,
   **   ~~~   ** or the requested variable is an advanced output which requires Output : Diagnostics, DisplayAdvancedReportVariables;
   ************* Key=*, VarName=BASEBOARD TOTAL HEATING ENERGY, Frequency=
   ************* Key=*, VarName=WATER HEATER NATURALGAS ENERGY, Frequency=
   ************* Key=*, VarName=COOLING COIL TOTAL HEATING ENERGY, Frequency=
   ************* There are 34 unused schedules in input.
   ************* There are 388 unused week schedules in input.
   ************* There are 396 unused day schedules in input.
   ************* Use Output:Diagnostics,DisplayUnusedSchedules; to see them.
   *************
   ************* ===== Recurring Error Summary =====
   ************* The following recurring error messages occurred.
   *************
   *************  ** Warning ** "TOTAL HOT WATER LOAD" - Target water temperature should be less than or equal to the hot water temperature error continues...
   *************  **   ~~~   **   This error occurred 132407 total times;
   *************  **   ~~~   **   during Warmup 0 times;
   *************  **   ~~~   **   during Sizing 0 times.
   *************  **   ~~~   **   Max=11.579383  Min=5.133656E-004
   *************
   *************  ** Warning ** SimHVAC: Exceeding Maximum iterations for all HVAC loops, during ANNUAL continues
   *************  **   ~~~   **   This error occurred 1 total times;
   *************  **   ~~~   **   during Warmup 0 times;
   *************  **   ~~~   **   during Sizing 0 times.
   *************
   *************
   ************* ===== Final Error Summary =====
   ************* The following error categories occurred.  Consider correcting or noting.
   ************* Nominally Unused Constructions
   ************* ..The nominally unused constructions warning is provided to alert you to potential conditions that can cause
   ************* ..extra time during simulation. Each construction is calculated by the algorithm indicated in the HeatBalanceAlgorithm
   ************* ..object. You may remove the constructions indicated (when you use the DisplayExtraWarnings option).
   *************
   ************* EnergyPlus Warmup Error Summary. During Warmup: 1 Warning; 0 Severe Errors.
   ************* EnergyPlus Sizing Error Summary. During Sizing: 4 Warning; 0 Severe Errors.
   ************* EnergyPlus Completed Successfully-- 132440 Warning; 0 Severe Errors; Elapsed Time=00hr 01min 42.72sec
