Program Version,EnergyPlus, Version 22.2.0-c249759bad, YMD=2023.09.01 15:20,
   ************* Beginning Zone Sizing Calculations
   ** Warning ** ProcessScheduleInput: Schedule:Constant="ALWAYS ON DISCRETE", Schedule Type Limits Name="ONOFF" not found -- will not be validated
   ** Warning ** Foundation:Kiva="KIVA FOUNDATION", no Interior Horizontal Insulation Material Name defined
   **   ~~~   ** Interior Horizontal Insulation Depth will not be used.
   ** Warning ** CheckUsedConstructions: There are 15 nominally unused constructions in input.
   **   ~~~   ** Each Unused construction is shown.
   ************* Construction=INTERIOR FLOOR
   ************* Construction=INTERIOR WINDOW
   ************* Construction=EXTERIOR DOOR
   ************* Construction=INTERIOR DOOR
   ************* Construction=GABLE CONSTRUCTION
   ************* Construction=CRAWL_FLOOR
   ************* Construction=INSULATED PIPE
   ************* Construction=PLAIN PIPE
   ************* Construction=TDD PIPE
   ************* Construction=TDD DOME
   ************* Construction=TDD DIFFUSER
   ************* Construction=CRAWL WALL
   ************* Construction=CEILING-FLOOR-LAYER
   ************* Construction=SLAB CONSTRUCTION W FULL R10 INSULATION
   ************* Construction=SLAB CONSTRUCTION W FULL R5 INSULATION
   ** Warning ** GetDXCoils: Coil:Heating:DX:SingleSpeed="DX_HEATING_COIL" curve values
   **   ~~~   ** ... Defrost Energy Input Ratio Function of Temperature Curve Name = DEFROSTEIR output is not equal to 1.0 (+ or - 10%) at rated conditions.
   **   ~~~   ** ... Curve output at rated conditions = 0.152
   ************* Beginning System Sizing Calculations
   ************* Beginning Plant Sizing Calculations
   ** Warning ** Coil:WaterHeating:AirToWaterHeatPump:Wrapped "HEAT PUMP WATER HEATER EVAPORATOR": Rated air volume flow rate per watt of rated total water heating capacity is out of range
   **   ~~~   ** Min Rated Vol Flow Per Watt=[4.027E-005], Rated Vol Flow Per Watt=[1.386E-004], Max Rated Vol Flow Per Watt=[8.056E-005]. See Input-Output Reference Manual for valid range.
   ** Warning ** Water heater = WATER HEATER TANK:  Recovery Efficiency and Energy Factor could not be calculated during the test for standard ratings
   **   ~~~   ** Setpoint was never recovered and/or heater never turned on
   ** Warning ** Check input. Pump nominal power or motor efficiency is set to 0, for pump=MAINS PRESSURE
   ** Warning ** Output:Meter: invalid Key Name="ELECTRIC_RANGE:INTERIOREQUIPMENT:ELECTRICITY" - not found.
   ** Warning ** Output:Meter: invalid Key Name="ELECTRIC_DRYER:INTERIOREQUIPMENT:ELECTRICITY" - not found.
   ** Warning ** Output:Meter: invalid Key Name="HEATRECOVERY:ELECTRICITY" - not found.
   ** Warning ** Output:Meter: invalid Key Name="HEATING:NATURALGAS" - not found.
   ** Warning ** Output:Meter: invalid Key Name="WATERSYSTEMS:NATURALGAS" - not found.
   ** Warning ** Output:Meter: invalid Key Name="PROPANE:FACILITY" - not found.
   ** Warning ** Output:Meter: invalid Key Name="HEATING:PROPANE" - not found.
   ************* Testing Individual Branch Integrity
   ************* All Branches passed integrity testing
   ************* Testing Individual Supply Air Path Integrity
   ************* All Supply Air Paths passed integrity testing
   ************* Testing Individual Return Air Path Integrity
   ************* All Return Air Paths passed integrity testing
   ************* No node connection errors were found.
   ************* Beginning Simulation
   ** Warning ** AirflowNetwork::Solver::validate_distribution: Heat pump water heater is simulated along with an AirflowNetwork but is not included in the AirflowNetwork.
   ** Warning ** CalcEquipmentFlowRates: "TOTAL HOT WATER LOAD" - Target water temperature is greater than the hot water temperature by (1.63 C)
   **   ~~~   **  Environment=EXTREME_WINTER, at Simulation time=01/20 06:00 - 06:15
   **   ~~~   ** ...target water temperature     = 53.33 C
   **   ~~~   ** ...hot water temperature        = 51.70 C
   **   ~~~   ** ...Target water temperature should be less than or equal to the hot water temperature. Verify temperature setpoints and schedules.
   ** Warning ** SimHVAC: Maximum iterations (20) exceeded for all HVAC loops, at ANNUAL, 02/13 19:08 - 19:15
   **   ~~~   ** The solution for one or more of the Air Loop HVAC systems did not appear to converge
   **   ~~~   ** Air System Named = CENTRAL SYSTEM did not converge for mass flow rate
   **   ~~~   ** Check values should be zero. Most Recent values listed first.
   **   ~~~   ** Demand-to-Supply interface mass flow rate check value iteration history trace: 6.436453E-002,6.436453E-002,6.436453E-002,6.436453E-002,6.436453E-002,6.436453E-002,6.436453E-002,6.436453E-002,6.436453E-002,6.436453E-002,
   **   ~~~   ** Supply-to-demand interface deck 1 mass flow rate check value iteration history trace: 6.436453E-002,6.436453E-002,6.436453E-002,6.436453E-002,6.436453E-002,6.436453E-002,6.436453E-002,6.436453E-002,6.436453E-002,6.436453E-002,
   **   ~~~   ** Air System Named = CENTRAL SYSTEM did not converge for energy
   **   ~~~   ** Check values should be zero. Most Recent values listed first.
   **   ~~~   ** Demand-to-Supply interface energy check value iteration history trace: 1259.950224,1259.950224,1259.950223,1259.950223,1259.950223,1259.950223,1259.950223,1259.950223,1259.950223,1259.950223,
   **   ~~~   ** Supply-to-demand interface deck 1 energy check value iteration history trace: 2307.042466,2307.042466,2307.042466,2307.042466,2307.042466,2307.042466,2307.042466,2307.042466,2307.042466,2307.042465,
   ** Warning ** SimHVAC: Maximum iterations (20) exceeded for all HVAC loops, at ANNUAL, 03/28 20:45 - 21:00
   **   ~~~   ** The solution for one or more of the Air Loop HVAC systems did not appear to converge
   **   ~~~   ** Air System Named = CENTRAL SYSTEM did not converge for mass flow rate
   **   ~~~   ** Check values should be zero. Most Recent values listed first.
   **   ~~~   ** Demand-to-Supply interface mass flow rate check value iteration history trace: 8.127198E-002,8.127198E-002,8.127198E-002,8.127198E-002,8.127198E-002,8.127198E-002,8.127198E-002,8.127198E-002,8.127198E-002,8.127198E-002,
   **   ~~~   ** Supply-to-demand interface deck 1 mass flow rate check value iteration history trace: 8.127198E-002,8.127198E-002,8.127198E-002,8.127198E-002,8.127198E-002,8.127198E-002,8.127198E-002,8.127198E-002,8.127198E-002,8.127198E-002,
   **   ~~~   ** Air System Named = CENTRAL SYSTEM did not converge for energy
   **   ~~~   ** Check values should be zero. Most Recent values listed first.
   **   ~~~   ** Demand-to-Supply interface energy check value iteration history trace: 1607.615447,1607.615447,1607.615447,1607.615447,1607.615447,1607.615447,1607.615447,1607.615447,1607.615446,1607.615446,
   **   ~~~   ** Supply-to-demand interface deck 1 energy check value iteration history trace: 2602.266092,2602.266092,2602.266092,2602.266092,2602.266091,2602.266091,2602.266091,2602.266091,2602.266091,2602.266091,
   ** Warning ** SimHVAC: Maximum iterations (20) exceeded for all HVAC loops, at ANNUAL, 04/20 08:03 - 08:06
   **   ~~~   ** The solution for one or more of the Air Loop HVAC systems did not appear to converge
   **   ~~~   ** Air System Named = CENTRAL SYSTEM did not converge for mass flow rate
   **   ~~~   ** Check values should be zero. Most Recent values listed first.
   **   ~~~   ** Demand-to-Supply interface mass flow rate check value iteration history trace: 6.003093E-002,6.003093E-002,6.003093E-002,6.003093E-002,6.003093E-002,6.003093E-002,6.003093E-002,6.003093E-002,6.003093E-002,6.003093E-002,
   **   ~~~   ** Supply-to-demand interface deck 1 mass flow rate check value iteration history trace: 6.003093E-002,6.003093E-002,6.003093E-002,6.003093E-002,6.003093E-002,6.003093E-002,6.003093E-002,6.003093E-002,6.003093E-002,6.003093E-002,
   **   ~~~   ** Air System Named = CENTRAL SYSTEM did not converge for energy
   **   ~~~   ** Check values should be zero. Most Recent values listed first.
   **   ~~~   ** Demand-to-Supply interface energy check value iteration history trace: 1182.694761,1182.694761,1182.694761,1182.694761,1182.694761,1182.694761,1182.694761,1182.694761,1182.694761,1182.694760,
   **   ~~~   ** Supply-to-demand interface deck 1 energy check value iteration history trace: 2306.263692,2306.263692,2306.263692,2306.263692,2306.263692,2306.263692,2306.263692,2306.263692,2306.263692,2306.263692,
   ** Warning ** SimHVAC: Maximum iterations (20) exceeded for all HVAC loops, at ANNUAL, 04/23 10:00 - 10:15
   **   ~~~   ** The solution for one or more of the Air Loop HVAC systems did not appear to converge
   **   ~~~   ** Air System Named = CENTRAL SYSTEM did not converge for mass flow rate
   **   ~~~   ** Check values should be zero. Most Recent values listed first.
   **   ~~~   ** Demand-to-Supply interface mass flow rate check value iteration history trace: 6.753021E-002,6.753021E-002,6.753021E-002,6.753021E-002,6.753021E-002,6.753021E-002,6.753021E-002,6.753021E-002,6.753021E-002,6.753021E-002,
   **   ~~~   ** Supply-to-demand interface deck 1 mass flow rate check value iteration history trace: 6.753021E-002,6.753021E-002,6.753021E-002,6.753021E-002,6.753021E-002,6.753021E-002,6.753021E-002,6.753021E-002,6.753021E-002,6.753021E-002,
   **   ~~~   ** Air System Named = CENTRAL SYSTEM did not converge for energy
   **   ~~~   ** Check values should be zero. Most Recent values listed first.
   **   ~~~   ** Demand-to-Supply interface energy check value iteration history trace: 1319.786825,1319.786825,1319.786824,1319.786824,1319.786824,1319.786823,1319.786823,1319.786823,1319.786823,1319.786822,
   **   ~~~   ** Supply-to-demand interface deck 1 energy check value iteration history trace: 2631.722587,2631.722586,2631.722586,2631.722585,2631.722584,2631.722584,2631.722583,2631.722582,2631.722582,2631.722581,
   **   ~~~   ** Node named ZONE INLET NODE shows oscillating temperatures across iterations with a repeated value of 38.783185
   **   ~~~   ** Node named ZONE INLET NODE temperature [C] iteration history trace (most recent first): 38.783185,38.783185,38.783184,38.783184,38.783184,38.783183,38.783183,38.783182,38.783182,38.783182,
   ** Warning ** SimHVAC: Maximum iterations (20) exceeded for all HVAC loops, at ANNUAL, 05/29 07:09 - 07:12
   **   ~~~   ** The solution for one or more of the Air Loop HVAC systems did not appear to converge
   **   ~~~   ** Air System Named = CENTRAL SYSTEM did not converge for mass flow rate
   **   ~~~   ** Check values should be zero. Most Recent values listed first.
   **   ~~~   ** Demand-to-Supply interface mass flow rate check value iteration history trace: 0.122116,0.122116,0.122116,0.122116,0.122116,0.122116,0.122116,0.122116,0.122116,0.122116,
   **   ~~~   ** Supply-to-demand interface deck 1 mass flow rate check value iteration history trace: 0.122116,0.122116,0.122116,0.122116,0.122116,0.122116,0.122116,0.122116,0.122116,0.122116,
   **   ~~~   ** Air System Named = CENTRAL SYSTEM did not converge for energy
   **   ~~~   ** Check values should be zero. Most Recent values listed first.
   **   ~~~   ** Demand-to-Supply interface energy check value iteration history trace: 2891.477737,2891.477737,2891.477738,2891.477738,2891.477739,2891.477740,2891.477740,2891.477741,2891.477741,2891.477742,
   **   ~~~   ** Supply-to-demand interface deck 1 energy check value iteration history trace: 1209.340380,1209.340380,1209.340380,1209.340380,1209.340381,1209.340381,1209.340381,1209.340381,1209.340381,1209.340382,
   ** Warning ** SimHVAC: Maximum iterations (20) exceeded for all HVAC loops, at ANNUAL, 06/14 16:20 - 16:25
   **   ~~~   ** The solution for one or more of the Air Loop HVAC systems did not appear to converge
   **   ~~~   ** Air System Named = CENTRAL SYSTEM did not converge for mass flow rate
   **   ~~~   ** Check values should be zero. Most Recent values listed first.
   **   ~~~   ** Demand-to-Supply interface mass flow rate check value iteration history trace: 0.268161,0.268161,0.268161,0.268161,0.268161,0.268161,0.268161,0.268161,0.268161,0.268161,
   **   ~~~   ** Supply-to-demand interface deck 1 mass flow rate check value iteration history trace: 0.268161,0.268161,0.268161,0.268161,0.268161,0.268161,0.268161,0.268161,0.268161,0.268161,
   **   ~~~   ** Air System Named = CENTRAL SYSTEM did not converge for energy
   **   ~~~   ** Check values should be zero. Most Recent values listed first.
   **   ~~~   ** Demand-to-Supply interface energy check value iteration history trace: 6405.264639,6405.264641,6405.264642,6405.264643,6405.264645,6405.264646,6405.264648,6405.264649,6405.264651,6405.264652,
   **   ~~~   ** Supply-to-demand interface deck 1 energy check value iteration history trace: 2892.130923,2892.130924,2892.130924,2892.130925,2892.130926,2892.130926,2892.130927,2892.130927,2892.130928,2892.130929,
   ** Warning ** SimHVAC: Maximum iterations (20) exceeded for all HVAC loops, at ANNUAL, 09/22 06:38 - 06:45
   **   ~~~   ** The solution for one or more of the Air Loop HVAC systems did not appear to converge
   **   ~~~   ** Air System Named = CENTRAL SYSTEM did not converge for mass flow rate
   **   ~~~   ** Check values should be zero. Most Recent values listed first.
   **   ~~~   ** Demand-to-Supply interface mass flow rate check value iteration history trace: 6.349110E-002,6.349110E-002,6.349110E-002,6.349110E-002,6.349110E-002,6.349110E-002,6.349110E-002,6.349110E-002,6.349110E-002,6.349110E-002,
   **   ~~~   ** Supply-to-demand interface deck 1 mass flow rate check value iteration history trace: 6.349110E-002,6.349110E-002,6.349110E-002,6.349110E-002,6.349110E-002,6.349110E-002,6.349110E-002,6.349110E-002,6.349110E-002,6.349110E-002,
   **   ~~~   ** Air System Named = CENTRAL SYSTEM did not converge for energy
   **   ~~~   ** Check values should be zero. Most Recent values listed first.
   **   ~~~   ** Demand-to-Supply interface energy check value iteration history trace: 1250.338756,1250.338756,1250.338756,1250.338756,1250.338756,1250.338756,1250.338755,1250.338755,1250.338755,1250.338755,
   **   ~~~   ** Supply-to-demand interface deck 1 energy check value iteration history trace: 2289.219234,2289.219234,2289.219234,2289.219234,2289.219234,2289.219234,2289.219234,2289.219234,2289.219234,2289.219234,
   ** Warning ** SimHVAC: Maximum iterations (20) exceeded for all HVAC loops, at ANNUAL, 10/15 11:45 - 11:52
   **   ~~~   ** The solution for one or more of the Air Loop HVAC systems did not appear to converge
   **   ~~~   ** Air System Named = CENTRAL SYSTEM did not converge for mass flow rate
   **   ~~~   ** Check values should be zero. Most Recent values listed first.
   **   ~~~   ** Demand-to-Supply interface mass flow rate check value iteration history trace: 5.744818E-002,5.744818E-002,5.744818E-002,5.744818E-002,5.744818E-002,5.744818E-002,5.744818E-002,5.744818E-002,5.744818E-002,5.744818E-002,
   **   ~~~   ** Supply-to-demand interface deck 1 mass flow rate check value iteration history trace: 5.744818E-002,5.744818E-002,5.744818E-002,5.744818E-002,5.744818E-002,5.744818E-002,5.744818E-002,5.744818E-002,5.744818E-002,5.744818E-002,
   **   ~~~   ** Air System Named = CENTRAL SYSTEM did not converge for energy
   **   ~~~   ** Check values should be zero. Most Recent values listed first.
   **   ~~~   ** Demand-to-Supply interface energy check value iteration history trace: 1134.556471,1134.556471,1134.556471,1134.556471,1134.556471,1134.556470,1134.556470,1134.556470,1134.556470,1134.556470,
   **   ~~~   ** Supply-to-demand interface deck 1 energy check value iteration history trace: 2143.000957,2143.000957,2143.000957,2143.000956,2143.000956,2143.000956,2143.000956,2143.000956,2143.000956,2143.000956,
   ** Warning ** SimHVAC: Maximum iterations (20) exceeded for all HVAC loops, at ANNUAL, 10/20 07:15 - 07:30
   **   ~~~   ** The solution for one or more of the Air Loop HVAC systems did not appear to converge
   **   ~~~   ** Air System Named = CENTRAL SYSTEM did not converge for mass flow rate
   **   ~~~   ** Check values should be zero. Most Recent values listed first.
   **   ~~~   ** Demand-to-Supply interface mass flow rate check value iteration history trace: 5.535126E-002,5.535126E-002,5.535126E-002,5.535126E-002,5.535126E-002,5.535126E-002,5.535126E-002,5.535126E-002,5.535126E-002,5.535126E-002,
   **   ~~~   ** Supply-to-demand interface deck 1 mass flow rate check value iteration history trace: 5.535126E-002,5.535126E-002,5.535126E-002,5.535126E-002,5.535126E-002,5.535126E-002,5.535126E-002,5.535126E-002,5.535126E-002,5.535126E-002,
   **   ~~~   ** Air System Named = CENTRAL SYSTEM did not converge for energy
   **   ~~~   ** Check values should be zero. Most Recent values listed first.
   **   ~~~   ** Demand-to-Supply interface energy check value iteration history trace: 1093.433551,1093.433551,1093.433550,1093.433550,1093.433550,1093.433550,1093.433550,1093.433550,1093.433550,1093.433550,
   **   ~~~   ** Supply-to-demand interface deck 1 energy check value iteration history trace: 2072.735631,2072.735631,2072.735631,2072.735631,2072.735631,2072.735631,2072.735631,2072.735631,2072.735631,2072.735631,
   ** Warning ** SimHVAC: Maximum iterations (20) exceeded for all HVAC loops, at ANNUAL, 11/11 19:30 - 19:45
   **   ~~~   ** The solution for one or more of the Air Loop HVAC systems did not appear to converge
   **   ~~~   ** Air System Named = CENTRAL SYSTEM did not converge for mass flow rate
   **   ~~~   ** Check values should be zero. Most Recent values listed first.
   **   ~~~   ** Demand-to-Supply interface mass flow rate check value iteration history trace: 6.612661E-002,6.612661E-002,6.612661E-002,6.612661E-002,6.612661E-002,6.612661E-002,6.612661E-002,6.612661E-002,6.612661E-002,6.612661E-002,
   **   ~~~   ** Supply-to-demand interface deck 1 mass flow rate check value iteration history trace: 6.612661E-002,6.612661E-002,6.612661E-002,6.612661E-002,6.612661E-002,6.612661E-002,6.612661E-002,6.612661E-002,6.612661E-002,6.612661E-002,
   **   ~~~   ** Air System Named = CENTRAL SYSTEM did not converge for energy
   **   ~~~   ** Check values should be zero. Most Recent values listed first.
   **   ~~~   ** Demand-to-Supply interface energy check value iteration history trace: 1296.004490,1296.004490,1296.004490,1296.004490,1296.004490,1296.004490,1296.004490,1296.004490,1296.004490,1296.004490,
   **   ~~~   ** Supply-to-demand interface deck 1 energy check value iteration history trace: 2380.021780,2380.021780,2380.021780,2380.021780,2380.021780,2380.021780,2380.021780,2380.021780,2380.021780,2380.021780,
   ************* Simulation Error Summary *************
   ** Warning ** The following Report Variables were requested but not generated -- check.rdd file
   **   ~~~   ** Either the IDF did not contain these elements, the variable name is misspelled,
   **   ~~~   ** or the requested variable is an advanced output which requires Output : Diagnostics, DisplayAdvancedReportVariables;
   ************* Key=*, VarName=BASEBOARD TOTAL HEATING ENERGY, Frequency=
   ************* Key=*, VarName=WATER HEATER NATURALGAS ENERGY, Frequency=
   ************* Key=*, VarName=COOLING COIL TOTAL HEATING ENERGY, Frequency=
   ************* There are 34 unused schedules in input.
   ************* There are 388 unused week schedules in input.
   ************* There are 396 unused day schedules in input.
   ************* Use Output:Diagnostics,DisplayUnusedSchedules; to see them.
   *************
   ************* ===== Recurring Error Summary =====
   ************* The following recurring error messages occurred.
   *************
   *************  ** Warning ** "TOTAL HOT WATER LOAD" - Target water temperature should be less than or equal to the hot water temperature error continues...
   *************  **   ~~~   **   This error occurred 80599 total times;
   *************  **   ~~~   **   during Warmup 0 times;
   *************  **   ~~~   **   during Sizing 0 times.
   *************  **   ~~~   **   Max=11.049798  Min=3.254228E-005
   *************
   *************
   ************* ===== Final Error Summary =====
   ************* The following error categories occurred.  Consider correcting or noting.
   ************* Nominally Unused Constructions
   ************* ..The nominally unused constructions warning is provided to alert you to potential conditions that can cause
   ************* ..extra time during simulation. Each construction is calculated by the algorithm indicated in the HeatBalanceAlgorithm
   ************* ..object. You may remove the constructions indicated (when you use the DisplayExtraWarnings option).
   *************
   ************* EnergyPlus Warmup Error Summary. During Warmup: 1 Warning; 0 Severe Errors.
   ************* EnergyPlus Sizing Error Summary. During Sizing: 4 Warning; 0 Severe Errors.
   ************* EnergyPlus Completed Successfully-- 80626 Warning; 0 Severe Errors; Elapsed Time=00hr 05min 10.13sec
