Program Version,EnergyPlus, Version 22.2.0-c249759bad, YMD=2023.08.31 12:58,
   ************* Beginning Zone Sizing Calculations
   ** Warning ** ProcessScheduleInput: Schedule:Constant="ALWAYS ON DISCRETE", Schedule Type Limits Name="ONOFF" not found -- will not be validated
   ** Warning ** Foundation:Kiva="KIVA FOUNDATION", no Interior Horizontal Insulation Material Name defined
   **   ~~~   ** Interior Horizontal Insulation Depth will not be used.
   ** Warning ** CheckUsedConstructions: There are 15 nominally unused constructions in input.
   **   ~~~   ** Each Unused construction is shown.
   ************* Construction=INTERIOR FLOOR
   ************* Construction=INTERIOR WINDOW
   ************* Construction=EXTERIOR DOOR
   ************* Construction=INTERIOR DOOR
   ************* Construction=GABLE CONSTRUCTION
   ************* Construction=CRAWL_FLOOR
   ************* Construction=INSULATED PIPE
   ************* Construction=PLAIN PIPE
   ************* Construction=TDD PIPE
   ************* Construction=TDD DOME
   ************* Construction=TDD DIFFUSER
   ************* Construction=CRAWL WALL
   ************* Construction=CEILING-FLOOR-LAYER
   ************* Construction=SLAB CONSTRUCTION W FULL R10 INSULATION
   ************* Construction=SLAB CONSTRUCTION W FULL R5 INSULATION
   ** Warning ** GetDXCoils: Coil:Heating:DX:SingleSpeed="DX_HEATING_COIL" curve values
   **   ~~~   ** ... Defrost Energy Input Ratio Function of Temperature Curve Name = DEFROSTEIR output is not equal to 1.0 (+ or - 10%) at rated conditions.
   **   ~~~   ** ... Curve output at rated conditions = 0.152
   ************* Beginning System Sizing Calculations
   ************* Beginning Plant Sizing Calculations
   ** Warning ** SizeDXCoil Coil:Cooling:DX:SingleSpeed DX_COOLING_COIL
   **   ~~~   ** ...Gross Rated Total Cooling Capacity [W] will be limited by the maximum rated volume flow per rated total capacity ratio.
   **   ~~~   ** ...DX coil volume flow rate ( m3/s ) = 0.435234
   **   ~~~   ** ...Requested capacity ( W ) = 6793.012
   **   ~~~   ** ...Requested flow/capacity ratio ( m3/s/W ) = 6.407E-005
   **   ~~~   ** ...Maximum flow/capacity ratio ( m3/s/W ) = 6.041E-005
   **   ~~~   ** ...Adjusted capacity ( W ) = 7204.670
   ** Warning ** Coil:WaterHeating:AirToWaterHeatPump:Wrapped "HEAT PUMP WATER HEATER EVAPORATOR": Rated air volume flow rate per watt of rated total water heating capacity is out of range
   **   ~~~   ** Min Rated Vol Flow Per Watt=[4.027E-005], Rated Vol Flow Per Watt=[1.386E-004], Max Rated Vol Flow Per Watt=[8.056E-005]. See Input-Output Reference Manual for valid range.
   ** Warning ** Water heater = WATER HEATER TANK:  Recovery Efficiency and Energy Factor could not be calculated during the test for standard ratings
   **   ~~~   ** Setpoint was never recovered and/or heater never turned on
   ** Warning ** Check input. Pump nominal power or motor efficiency is set to 0, for pump=MAINS PRESSURE
   ** Warning ** Output:Meter: invalid Key Name="ELECTRIC_RANGE:INTERIOREQUIPMENT:ELECTRICITY" - not found.
   ** Warning ** Output:Meter: invalid Key Name="ELECTRIC_DRYER:INTERIOREQUIPMENT:ELECTRICITY" - not found.
   ** Warning ** Output:Meter: invalid Key Name="HEATRECOVERY:ELECTRICITY" - not found.
   ** Warning ** Output:Meter: invalid Key Name="HEATING:NATURALGAS" - not found.
   ** Warning ** Output:Meter: invalid Key Name="WATERSYSTEMS:NATURALGAS" - not found.
   ** Warning ** Output:Meter: invalid Key Name="PROPANE:FACILITY" - not found.
   ** Warning ** Output:Meter: invalid Key Name="HEATING:PROPANE" - not found.
   ************* Testing Individual Branch Integrity
   ************* All Branches passed integrity testing
   ************* Testing Individual Supply Air Path Integrity
   ************* All Supply Air Paths passed integrity testing
   ************* Testing Individual Return Air Path Integrity
   ************* All Return Air Paths passed integrity testing
   ************* No node connection errors were found.
   ************* Beginning Simulation
   ** Warning ** AirflowNetwork::Solver::validate_distribution: Heat pump water heater is simulated along with an AirflowNetwork but is not included in the AirflowNetwork.
   ** Warning ** CalcEquipmentFlowRates: "TOTAL HOT WATER LOAD" - Target water temperature is greater than the hot water temperature by (1.69 C)
   **   ~~~   **  Environment=EXTREME_WINTER, at Simulation time=02/10 06:00 - 06:15
   **   ~~~   ** ...target water temperature     = 53.33 C
   **   ~~~   ** ...hot water temperature        = 51.64 C
   **   ~~~   ** ...Target water temperature should be less than or equal to the hot water temperature. Verify temperature setpoints and schedules.
   ** Warning ** SimHVAC: Maximum iterations (20) exceeded for all HVAC loops, at ANNUAL, 01/01 21:00 - 21:15
   **   ~~~   ** The solution for one or more of the Air Loop HVAC systems did not appear to converge
   **   ~~~   ** Air System Named = CENTRAL SYSTEM did not converge for mass flow rate
   **   ~~~   ** Check values should be zero. Most Recent values listed first.
   **   ~~~   ** Demand-to-Supply interface mass flow rate check value iteration history trace: 9.098638E-002,9.098638E-002,9.098638E-002,9.098638E-002,9.098638E-002,9.098638E-002,9.098638E-002,9.098638E-002,9.098638E-002,9.098638E-002,
   **   ~~~   ** Supply-to-demand interface deck 1 mass flow rate check value iteration history trace: 9.098638E-002,9.098638E-002,9.098638E-002,9.098638E-002,9.098638E-002,9.098638E-002,9.098638E-002,9.098638E-002,9.098638E-002,9.098638E-002,
   **   ~~~   ** Air System Named = CENTRAL SYSTEM did not converge for energy
   **   ~~~   ** Check values should be zero. Most Recent values listed first.
   **   ~~~   ** Demand-to-Supply interface energy check value iteration history trace: 1801.440048,1801.440043,1801.440038,1801.440032,1801.440027,1801.440021,1801.440016,1801.440011,1801.440005,1801.440000,
   **   ~~~   ** Supply-to-demand interface deck 1 energy check value iteration history trace: 2804.301728,2804.301720,2804.301712,2804.301703,2804.301695,2804.301687,2804.301678,2804.301670,2804.301661,2804.301653,
   ** Warning ** SimHVAC: Maximum iterations (20) exceeded for all HVAC loops, at ANNUAL, 01/24 19:15 - 19:30
   **   ~~~   ** The solution for one or more of the Air Loop HVAC systems did not appear to converge
   **   ~~~   ** Air System Named = CENTRAL SYSTEM did not converge for mass flow rate
   **   ~~~   ** Check values should be zero. Most Recent values listed first.
   **   ~~~   ** Demand-to-Supply interface mass flow rate check value iteration history trace: 8.720467E-002,8.720467E-002,8.720467E-002,8.720467E-002,8.720467E-002,8.720467E-002,8.720467E-002,8.720467E-002,8.720467E-002,8.720467E-002,
   **   ~~~   ** Supply-to-demand interface deck 1 mass flow rate check value iteration history trace: 8.720467E-002,8.720467E-002,8.720467E-002,8.720467E-002,8.720467E-002,8.720467E-002,8.720467E-002,8.720467E-002,8.720467E-002,8.720467E-002,
   **   ~~~   ** Air System Named = CENTRAL SYSTEM did not converge for energy
   **   ~~~   ** Check values should be zero. Most Recent values listed first.
   **   ~~~   ** Demand-to-Supply interface energy check value iteration history trace: 1730.020434,1730.020432,1730.020431,1730.020430,1730.020428,1730.020427,1730.020425,1730.020424,1730.020423,1730.020421,
   **   ~~~   ** Supply-to-demand interface deck 1 energy check value iteration history trace: 2938.803925,2938.803923,2938.803920,2938.803918,2938.803916,2938.803913,2938.803911,2938.803909,2938.803906,2938.803904,
   ** Warning ** SimHVAC: Maximum iterations (20) exceeded for all HVAC loops, at ANNUAL, 01/29 12:30 - 12:45
   **   ~~~   ** The solution for one or more of the Air Loop HVAC systems did not appear to converge
   **   ~~~   ** Air System Named = CENTRAL SYSTEM did not converge for mass flow rate
   **   ~~~   ** Check values should be zero. Most Recent values listed first.
   **   ~~~   ** Demand-to-Supply interface mass flow rate check value iteration history trace: 7.204897E-002,7.204897E-002,7.204897E-002,7.204897E-002,7.204897E-002,7.204897E-002,7.204897E-002,7.204897E-002,7.204897E-002,7.204896E-002,
   **   ~~~   ** Supply-to-demand interface deck 1 mass flow rate check value iteration history trace: 7.204897E-002,7.204897E-002,7.204897E-002,7.204897E-002,7.204897E-002,7.204897E-002,7.204897E-002,7.204897E-002,7.204897E-002,7.204896E-002,
   **   ~~~   ** Air System Named = CENTRAL SYSTEM did not converge for energy
   **   ~~~   ** Check values should be zero. Most Recent values listed first.
   **   ~~~   ** Demand-to-Supply interface energy check value iteration history trace: 1427.748289,1427.748287,1427.748285,1427.748283,1427.748281,1427.748279,1427.748277,1427.748276,1427.748274,1427.748272,
   **   ~~~   ** Supply-to-demand interface deck 1 energy check value iteration history trace: 2198.017451,2198.017448,2198.017445,2198.017442,2198.017439,2198.017436,2198.017433,2198.017430,2198.017427,2198.017424,
   ** Warning ** SimHVAC: Maximum iterations (20) exceeded for all HVAC loops, at ANNUAL, 01/29 12:35 - 12:40
   **   ~~~   ** The solution for one or more of the Air Loop HVAC systems did not appear to converge
   **   ~~~   ** Air System Named = CENTRAL SYSTEM did not converge for mass flow rate
   **   ~~~   ** Check values should be zero. Most Recent values listed first.
   **   ~~~   ** Demand-to-Supply interface mass flow rate check value iteration history trace: 7.192408E-002,7.192408E-002,7.192408E-002,7.192408E-002,7.192408E-002,7.192408E-002,7.192408E-002,7.192408E-002,7.192408E-002,7.192408E-002,
   **   ~~~   ** Supply-to-demand interface deck 1 mass flow rate check value iteration history trace: 7.192408E-002,7.192408E-002,7.192408E-002,7.192408E-002,7.192408E-002,7.192408E-002,7.192408E-002,7.192408E-002,7.192408E-002,7.192408E-002,
   **   ~~~   ** Air System Named = CENTRAL SYSTEM did not converge for energy
   **   ~~~   ** Check values should be zero. Most Recent values listed first.
   **   ~~~   ** Demand-to-Supply interface energy check value iteration history trace: 1425.321890,1425.321889,1425.321887,1425.321885,1425.321883,1425.321881,1425.321879,1425.321877,1425.321875,1425.321873,
   **   ~~~   ** Supply-to-demand interface deck 1 energy check value iteration history trace: 2194.243101,2194.243098,2194.243095,2194.243092,2194.243090,2194.243087,2194.243084,2194.243081,2194.243078,2194.243075,
   ** Warning ** SimHVAC: Maximum iterations (20) exceeded for all HVAC loops, at ANNUAL, 03/27 08:00 - 08:15
   **   ~~~   ** The solution for one or more of the Air Loop HVAC systems did not appear to converge
   **   ~~~   ** Air System Named = CENTRAL SYSTEM did not converge for mass flow rate
   **   ~~~   ** Check values should be zero. Most Recent values listed first.
   **   ~~~   ** Demand-to-Supply interface mass flow rate check value iteration history trace: 4.548813E-002,4.548813E-002,4.548813E-002,4.548813E-002,4.548813E-002,4.548813E-002,4.548813E-002,4.548813E-002,4.548813E-002,4.548813E-002,
   **   ~~~   ** Supply-to-demand interface deck 1 mass flow rate check value iteration history trace: 4.548813E-002,4.548813E-002,4.548813E-002,4.548813E-002,4.548813E-002,4.548813E-002,4.548813E-002,4.548813E-002,4.548813E-002,4.548813E-002,
   **   ~~~   ** Air System Named = CENTRAL SYSTEM did not converge for energy
   **   ~~~   ** Check values should be zero. Most Recent values listed first.
   **   ~~~   ** Demand-to-Supply interface energy check value iteration history trace: 901.435471,901.435470,901.435470,901.435469,901.435469,901.435468,901.435468,901.435467,901.435467,901.435466,
   **   ~~~   ** Supply-to-demand interface deck 1 energy check value iteration history trace: 1616.438714,1616.438713,1616.438712,1616.438711,1616.438710,1616.438709,1616.438708,1616.438707,1616.438706,1616.438706,
   ** Warning ** SimHVAC: Maximum iterations (20) exceeded for all HVAC loops, at ANNUAL, 05/18 17:15 - 17:30
   **   ~~~   ** The solution for one or more of the Air Loop HVAC systems did not appear to converge
   **   ~~~   ** Air System Named = CENTRAL SYSTEM did not converge for mass flow rate
   **   ~~~   ** Check values should be zero. Most Recent values listed first.
   **   ~~~   ** Demand-to-Supply interface mass flow rate check value iteration history trace: 4.825010E-002,4.825010E-002,4.825010E-002,4.825010E-002,4.825010E-002,4.825010E-002,4.825010E-002,4.825010E-002,4.825010E-002,4.825010E-002,
   **   ~~~   ** Supply-to-demand interface deck 1 mass flow rate check value iteration history trace: 4.825010E-002,4.825010E-002,4.825010E-002,4.825010E-002,4.825010E-002,4.825010E-002,4.825010E-002,4.825010E-002,4.825010E-002,4.825010E-002,
   **   ~~~   ** Air System Named = CENTRAL SYSTEM did not converge for energy
   **   ~~~   ** Check values should be zero. Most Recent values listed first.
   **   ~~~   ** Demand-to-Supply interface energy check value iteration history trace: 1121.412992,1121.412993,1121.412994,1121.412995,1121.412996,1121.412997,1121.412998,1121.412999,1121.413001,1121.413002,
   **   ~~~   ** Supply-to-demand interface deck 1 energy check value iteration history trace: 595.969675,595.969676,595.969676,595.969677,595.969678,595.969678,595.969679,595.969679,595.969680,595.969680,
   ** Warning ** SimHVAC: Maximum iterations (20) exceeded for all HVAC loops, at ANNUAL, 11/02 06:00 - 06:15
   **   ~~~   ** The solution for one or more of the Air Loop HVAC systems did not appear to converge
   **   ~~~   ** Air System Named = CENTRAL SYSTEM did not converge for mass flow rate
   **   ~~~   ** Check values should be zero. Most Recent values listed first.
   **   ~~~   ** Demand-to-Supply interface mass flow rate check value iteration history trace: 7.007979E-002,7.007979E-002,7.007979E-002,7.007979E-002,7.007979E-002,7.007979E-002,7.007979E-002,7.007979E-002,7.007979E-002,7.007979E-002,
   **   ~~~   ** Supply-to-demand interface deck 1 mass flow rate check value iteration history trace: 7.007979E-002,7.007979E-002,7.007979E-002,7.007979E-002,7.007979E-002,7.007979E-002,7.007979E-002,7.007979E-002,7.007979E-002,7.007979E-002,
   **   ~~~   ** Air System Named = CENTRAL SYSTEM did not converge for energy
   **   ~~~   ** Check values should be zero. Most Recent values listed first.
   **   ~~~   ** Demand-to-Supply interface energy check value iteration history trace: 1389.928723,1389.928722,1389.928720,1389.928719,1389.928717,1389.928716,1389.928715,1389.928713,1389.928712,1389.928710,
   **   ~~~   ** Supply-to-demand interface deck 1 energy check value iteration history trace: 2373.958882,2373.958880,2373.958877,2373.958875,2373.958873,2373.958870,2373.958868,2373.958865,2373.958863,2373.958861,
   ** Warning ** SimHVAC: Maximum iterations (20) exceeded for all HVAC loops, at ANNUAL, 11/07 08:27 - 08:30
   **   ~~~   ** The solution for one or more of the Air Loop HVAC systems did not appear to converge
   **   ~~~   ** Air System Named = CENTRAL SYSTEM did not converge for mass flow rate
   **   ~~~   ** Check values should be zero. Most Recent values listed first.
   **   ~~~   ** Demand-to-Supply interface mass flow rate check value iteration history trace: 7.042077E-002,7.042077E-002,7.042077E-002,7.042077E-002,7.042077E-002,7.042077E-002,7.042077E-002,7.042077E-002,7.042077E-002,7.042077E-002,
   **   ~~~   ** Supply-to-demand interface deck 1 mass flow rate check value iteration history trace: 7.042077E-002,7.042077E-002,7.042077E-002,7.042077E-002,7.042077E-002,7.042077E-002,7.042077E-002,7.042077E-002,7.042077E-002,7.042077E-002,
   **   ~~~   ** Air System Named = CENTRAL SYSTEM did not converge for energy
   **   ~~~   ** Check values should be zero. Most Recent values listed first.
   **   ~~~   ** Demand-to-Supply interface energy check value iteration history trace: 1391.432010,1391.432009,1391.432008,1391.432007,1391.432007,1391.432006,1391.432005,1391.432004,1391.432004,1391.432003,
   **   ~~~   ** Supply-to-demand interface deck 1 energy check value iteration history trace: 2493.957755,2493.957754,2493.957753,2493.957751,2493.957750,2493.957749,2493.957747,2493.957746,2493.957745,2493.957743,
   ** Warning ** SimHVAC: Maximum iterations (20) exceeded for all HVAC loops, at ANNUAL, 11/30 06:30 - 06:38
   **   ~~~   ** The solution for one or more of the Air Loop HVAC systems did not appear to converge
   **   ~~~   ** Air System Named = CENTRAL SYSTEM did not converge for mass flow rate
   **   ~~~   ** Check values should be zero. Most Recent values listed first.
   **   ~~~   ** Demand-to-Supply interface mass flow rate check value iteration history trace: 6.207845E-002,6.207845E-002,6.207845E-002,6.207845E-002,6.207845E-002,6.207845E-002,6.207845E-002,6.207845E-002,6.207845E-002,6.207845E-002,
   **   ~~~   ** Supply-to-demand interface deck 1 mass flow rate check value iteration history trace: 6.207845E-002,6.207845E-002,6.207845E-002,6.207845E-002,6.207845E-002,6.207845E-002,6.207845E-002,6.207845E-002,6.207845E-002,6.207845E-002,
   **   ~~~   ** Air System Named = CENTRAL SYSTEM did not converge for energy
   **   ~~~   ** Check values should be zero. Most Recent values listed first.
   **   ~~~   ** Demand-to-Supply interface energy check value iteration history trace: 1224.690559,1224.690559,1224.690558,1224.690557,1224.690556,1224.690555,1224.690554,1224.690553,1224.690552,1224.690552,
   **   ~~~   ** Supply-to-demand interface deck 1 energy check value iteration history trace: 2220.756721,2220.756719,2220.756718,2220.756716,2220.756715,2220.756713,2220.756711,2220.756710,2220.756708,2220.756707,
   ** Warning ** SimHVAC: Maximum iterations (20) exceeded for all HVAC loops, at ANNUAL, 12/24 20:00 - 20:15
   **   ~~~   ** The solution for one or more of the Air Loop HVAC systems did not appear to converge
   **   ~~~   ** Air System Named = CENTRAL SYSTEM did not converge for mass flow rate
   **   ~~~   ** Check values should be zero. Most Recent values listed first.
   **   ~~~   ** Demand-to-Supply interface mass flow rate check value iteration history trace: 6.905266E-002,6.905266E-002,6.905265E-002,6.905265E-002,6.905265E-002,6.905265E-002,6.905265E-002,6.905265E-002,6.905265E-002,6.905265E-002,
   **   ~~~   ** Supply-to-demand interface deck 1 mass flow rate check value iteration history trace: 6.905266E-002,6.905266E-002,6.905265E-002,6.905265E-002,6.905265E-002,6.905265E-002,6.905265E-002,6.905265E-002,6.905265E-002,6.905265E-002,
   **   ~~~   ** Air System Named = CENTRAL SYSTEM did not converge for energy
   **   ~~~   ** Check values should be zero. Most Recent values listed first.
   **   ~~~   ** Demand-to-Supply interface energy check value iteration history trace: 1355.208164,1355.208162,1355.208161,1355.208160,1355.208158,1355.208157,1355.208155,1355.208154,1355.208152,1355.208151,
   **   ~~~   ** Supply-to-demand interface deck 1 energy check value iteration history trace: 2387.780365,2387.780362,2387.780360,2387.780357,2387.780354,2387.780352,2387.780349,2387.780347,2387.780344,2387.780341,
   ** Warning ** SimHVAC: Maximum iterations (20) exceeded for all HVAC loops, at ANNUAL, 12/28 07:15 - 07:30
   **   ~~~   ** The solution for one or more of the Air Loop HVAC systems did not appear to converge
   **   ~~~   ** Air System Named = CENTRAL SYSTEM did not converge for mass flow rate
   **   ~~~   ** Check values should be zero. Most Recent values listed first.
   **   ~~~   ** Demand-to-Supply interface mass flow rate check value iteration history trace: 5.843623E-002,5.843623E-002,5.843623E-002,5.843623E-002,5.843623E-002,5.843623E-002,5.843623E-002,5.843623E-002,5.843623E-002,5.843623E-002,
   **   ~~~   ** Supply-to-demand interface deck 1 mass flow rate check value iteration history trace: 5.843623E-002,5.843623E-002,5.843623E-002,5.843623E-002,5.843623E-002,5.843623E-002,5.843623E-002,5.843623E-002,5.843623E-002,5.843623E-002,
   **   ~~~   ** Air System Named = CENTRAL SYSTEM did not converge for energy
   **   ~~~   ** Check values should be zero. Most Recent values listed first.
   **   ~~~   ** Demand-to-Supply interface energy check value iteration history trace: 1158.075515,1158.075515,1158.075514,1158.075514,1158.075513,1158.075513,1158.075512,1158.075512,1158.075511,1158.075511,
   **   ~~~   ** Supply-to-demand interface deck 1 energy check value iteration history trace: 2095.471293,2095.471293,2095.471292,2095.471291,2095.471290,2095.471289,2095.471288,2095.471287,2095.471286,2095.471285,
   ** Warning ** SimHVAC: Maximum iterations (20) exceeded for all HVAC loops, at ANNUAL, 12/28 07:15 - 07:22
   **   ~~~   ** The solution for one or more of the Air Loop HVAC systems did not appear to converge
   **   ~~~   ** Air System Named = CENTRAL SYSTEM did not converge for mass flow rate
   **   ~~~   ** Check values should be zero. Most Recent values listed first.
   **   ~~~   ** Demand-to-Supply interface mass flow rate check value iteration history trace: 5.873597E-002,5.873597E-002,5.873597E-002,5.873597E-002,5.873597E-002,5.873597E-002,5.873597E-002,5.873597E-002,5.873597E-002,5.873597E-002,
   **   ~~~   ** Supply-to-demand interface deck 1 mass flow rate check value iteration history trace: 5.873597E-002,5.873597E-002,5.873597E-002,5.873597E-002,5.873597E-002,5.873597E-002,5.873597E-002,5.873597E-002,5.873597E-002,5.873597E-002,
   **   ~~~   ** Air System Named = CENTRAL SYSTEM did not converge for energy
   **   ~~~   ** Check values should be zero. Most Recent values listed first.
   **   ~~~   ** Demand-to-Supply interface energy check value iteration history trace: 1164.015655,1164.015655,1164.015654,1164.015654,1164.015653,1164.015653,1164.015652,1164.015652,1164.015651,1164.015651,
   **   ~~~   ** Supply-to-demand interface deck 1 energy check value iteration history trace: 2106.218385,2106.218384,2106.218383,2106.218382,2106.218381,2106.218381,2106.218380,2106.218379,2106.218378,2106.218377,
   ************* Simulation Error Summary *************
   ** Warning ** The following Report Variables were requested but not generated -- check.rdd file
   **   ~~~   ** Either the IDF did not contain these elements, the variable name is misspelled,
   **   ~~~   ** or the requested variable is an advanced output which requires Output : Diagnostics, DisplayAdvancedReportVariables;
   ************* Key=*, VarName=BASEBOARD TOTAL HEATING ENERGY, Frequency=
   ************* Key=*, VarName=WATER HEATER NATURALGAS ENERGY, Frequency=
   ************* Key=*, VarName=COOLING COIL TOTAL HEATING ENERGY, Frequency=
   ************* There are 34 unused schedules in input.
   ************* There are 388 unused week schedules in input.
   ************* There are 396 unused day schedules in input.
   ************* Use Output:Diagnostics,DisplayUnusedSchedules; to see them.
   *************
   ************* ===== Recurring Error Summary =====
   ************* The following recurring error messages occurred.
   *************
   *************  ** Warning ** "TOTAL HOT WATER LOAD" - Target water temperature should be less than or equal to the hot water temperature error continues...
   *************  **   ~~~   **   This error occurred 105773 total times;
   *************  **   ~~~   **   during Warmup 0 times;
   *************  **   ~~~   **   during Sizing 0 times.
   *************  **   ~~~   **   Max=8.511784  Min=8.146726E-005
   *************
   *************
   ************* ===== Final Error Summary =====
   ************* The following error categories occurred.  Consider correcting or noting.
   ************* Nominally Unused Constructions
   ************* ..The nominally unused constructions warning is provided to alert you to potential conditions that can cause
   ************* ..extra time during simulation. Each construction is calculated by the algorithm indicated in the HeatBalanceAlgorithm
   ************* ..object. You may remove the constructions indicated (when you use the DisplayExtraWarnings option).
   *************
   ************* EnergyPlus Warmup Error Summary. During Warmup: 1 Warning; 0 Severe Errors.
   ************* EnergyPlus Sizing Error Summary. During Sizing: 4 Warning; 0 Severe Errors.
   ************* EnergyPlus Completed Successfully-- 105803 Warning; 0 Severe Errors; Elapsed Time=00hr 05min 57.20sec
