Program Version,EnergyPlus, Version 22.2.0-c249759bad, YMD=2023.09.01 15:20,
   ************* Beginning Zone Sizing Calculations
   ** Warning ** ProcessScheduleInput: Schedule:Constant="ALWAYS ON DISCRETE", Schedule Type Limits Name="ONOFF" not found -- will not be validated
   ** Warning ** Foundation:Kiva="KIVA FOUNDATION", no Interior Horizontal Insulation Material Name defined
   **   ~~~   ** Interior Horizontal Insulation Depth will not be used.
   ** Warning ** CheckUsedConstructions: There are 15 nominally unused constructions in input.
   **   ~~~   ** Each Unused construction is shown.
   ************* Construction=INTERIOR FLOOR
   ************* Construction=INTERIOR WINDOW
   ************* Construction=EXTERIOR DOOR
   ************* Construction=INTERIOR DOOR
   ************* Construction=GABLE CONSTRUCTION
   ************* Construction=CRAWL_FLOOR
   ************* Construction=INSULATED PIPE
   ************* Construction=PLAIN PIPE
   ************* Construction=TDD PIPE
   ************* Construction=TDD DOME
   ************* Construction=TDD DIFFUSER
   ************* Construction=CRAWL WALL
   ************* Construction=CEILING-FLOOR-LAYER
   ************* Construction=SLAB CONSTRUCTION W FULL R10 INSULATION
   ************* Construction=SLAB CONSTRUCTION W FULL R5 INSULATION
   ** Warning ** GetDXCoils: Coil:Heating:DX:SingleSpeed="DX_HEATING_COIL" curve values
   **   ~~~   ** ... Defrost Energy Input Ratio Function of Temperature Curve Name = DEFROSTEIR output is not equal to 1.0 (+ or - 10%) at rated conditions.
   **   ~~~   ** ... Curve output at rated conditions = 0.152
   ************* Beginning System Sizing Calculations
   ************* Beginning Plant Sizing Calculations
   ** Warning ** SizeDXCoil Coil:Cooling:DX:SingleSpeed DX_COOLING_COIL
   **   ~~~   ** ...Gross Rated Total Cooling Capacity [W] will be limited by the maximum rated volume flow per rated total capacity ratio.
   **   ~~~   ** ...DX coil volume flow rate ( m3/s ) = 0.570715
   **   ~~~   ** ...Requested capacity ( W ) = 8294.869
   **   ~~~   ** ...Requested flow/capacity ratio ( m3/s/W ) = 6.880E-005
   **   ~~~   ** ...Maximum flow/capacity ratio ( m3/s/W ) = 6.041E-005
   **   ~~~   ** ...Adjusted capacity ( W ) = 9447.360
   ** Warning ** Coil:WaterHeating:AirToWaterHeatPump:Wrapped "HEAT PUMP WATER HEATER EVAPORATOR": Rated air volume flow rate per watt of rated total water heating capacity is out of range
   **   ~~~   ** Min Rated Vol Flow Per Watt=[4.027E-005], Rated Vol Flow Per Watt=[1.386E-004], Max Rated Vol Flow Per Watt=[8.056E-005]. See Input-Output Reference Manual for valid range.
   ** Warning ** Water heater = WATER HEATER TANK:  Recovery Efficiency and Energy Factor could not be calculated during the test for standard ratings
   **   ~~~   ** Setpoint was never recovered and/or heater never turned on
   ** Warning ** Check input. Pump nominal power or motor efficiency is set to 0, for pump=MAINS PRESSURE
   ** Warning ** Output:Meter: invalid Key Name="ELECTRIC_RANGE:INTERIOREQUIPMENT:ELECTRICITY" - not found.
   ** Warning ** Output:Meter: invalid Key Name="ELECTRIC_DRYER:INTERIOREQUIPMENT:ELECTRICITY" - not found.
   ** Warning ** Output:Meter: invalid Key Name="HEATRECOVERY:ELECTRICITY" - not found.
   ** Warning ** Output:Meter: invalid Key Name="HEATING:NATURALGAS" - not found.
   ** Warning ** Output:Meter: invalid Key Name="WATERSYSTEMS:NATURALGAS" - not found.
   ** Warning ** Output:Meter: invalid Key Name="PROPANE:FACILITY" - not found.
   ** Warning ** Output:Meter: invalid Key Name="HEATING:PROPANE" - not found.
   ************* Testing Individual Branch Integrity
   ************* All Branches passed integrity testing
   ************* Testing Individual Supply Air Path Integrity
   ************* All Supply Air Paths passed integrity testing
   ************* Testing Individual Return Air Path Integrity
   ************* All Return Air Paths passed integrity testing
   ************* No node connection errors were found.
   ************* Beginning Simulation
   ** Warning ** AirflowNetwork::Solver::validate_distribution: Heat pump water heater is simulated along with an AirflowNetwork but is not included in the AirflowNetwork.
   ** Warning ** CalcEquipmentFlowRates: "TOTAL HOT WATER LOAD" - Target water temperature is greater than the hot water temperature by (1.68 C)
   **   ~~~   **  Environment=EXTREME_WINTER, at Simulation time=12/22 06:00 - 06:15
   **   ~~~   ** ...target water temperature     = 53.33 C
   **   ~~~   ** ...hot water temperature        = 51.65 C
   **   ~~~   ** ...Target water temperature should be less than or equal to the hot water temperature. Verify temperature setpoints and schedules.
   ** Warning ** SimHVAC: Maximum iterations (20) exceeded for all HVAC loops, at ANNUAL, 01/07 10:49 - 10:51
   **   ~~~   ** The solution for one or more of the Air Loop HVAC systems did not appear to converge
   **   ~~~   ** Air System Named = CENTRAL SYSTEM did not converge for mass flow rate
   **   ~~~   ** Check values should be zero. Most Recent values listed first.
   **   ~~~   ** Demand-to-Supply interface mass flow rate check value iteration history trace: 8.702311E-002,8.702311E-002,8.702311E-002,8.702311E-002,8.702311E-002,8.702311E-002,8.702311E-002,8.702311E-002,8.702311E-002,8.702311E-002,
   **   ~~~   ** Supply-to-demand interface deck 1 mass flow rate check value iteration history trace: 8.702311E-002,8.702311E-002,8.702311E-002,8.702311E-002,8.702311E-002,8.702311E-002,8.702311E-002,8.702311E-002,8.702311E-002,8.702311E-002,
   **   ~~~   ** Air System Named = CENTRAL SYSTEM did not converge for energy
   **   ~~~   ** Check values should be zero. Most Recent values listed first.
   **   ~~~   ** Demand-to-Supply interface energy check value iteration history trace: 1724.620960,1724.620960,1724.620960,1724.620960,1724.620960,1724.620960,1724.620960,1724.620959,1724.620959,1724.620959,
   **   ~~~   ** Supply-to-demand interface deck 1 energy check value iteration history trace: 2697.191796,2697.191795,2697.191795,2697.191795,2697.191795,2697.191795,2697.191795,2697.191795,2697.191794,2697.191794,
   ** Warning ** SimHVAC: Maximum iterations (20) exceeded for all HVAC loops, at ANNUAL, 01/07 11:47 - 11:50
   **   ~~~   ** The solution for one or more of the Air Loop HVAC systems did not appear to converge
   **   ~~~   ** Air System Named = CENTRAL SYSTEM did not converge for mass flow rate
   **   ~~~   ** Check values should be zero. Most Recent values listed first.
   **   ~~~   ** Demand-to-Supply interface mass flow rate check value iteration history trace: 7.129771E-002,7.129771E-002,7.129771E-002,7.129771E-002,7.129771E-002,7.129771E-002,7.129771E-002,7.129771E-002,7.129771E-002,7.129771E-002,
   **   ~~~   ** Supply-to-demand interface deck 1 mass flow rate check value iteration history trace: 7.129771E-002,7.129771E-002,7.129771E-002,7.129771E-002,7.129771E-002,7.129771E-002,7.129771E-002,7.129771E-002,7.129771E-002,7.129771E-002,
   **   ~~~   ** Air System Named = CENTRAL SYSTEM did not converge for energy
   **   ~~~   ** Check values should be zero. Most Recent values listed first.
   **   ~~~   ** Demand-to-Supply interface energy check value iteration history trace: 1410.556975,1410.556975,1410.556975,1410.556975,1410.556975,1410.556974,1410.556974,1410.556974,1410.556974,1410.556974,
   **   ~~~   ** Supply-to-demand interface deck 1 energy check value iteration history trace: 2236.437220,2236.437220,2236.437219,2236.437219,2236.437219,2236.437219,2236.437219,2236.437219,2236.437219,2236.437219,
   ** Warning ** SimHVAC: Maximum iterations (20) exceeded for all HVAC loops, at ANNUAL, 02/18 09:19 - 09:21
   **   ~~~   ** The solution for one or more of the Air Loop HVAC systems did not appear to converge
   **   ~~~   ** Air System Named = CENTRAL SYSTEM did not converge for mass flow rate
   **   ~~~   ** Check values should be zero. Most Recent values listed first.
   **   ~~~   ** Demand-to-Supply interface mass flow rate check value iteration history trace: 8.456613E-002,8.456613E-002,8.456613E-002,8.456613E-002,8.456613E-002,8.456613E-002,8.456613E-002,8.456613E-002,8.456613E-002,8.456613E-002,
   **   ~~~   ** Supply-to-demand interface deck 1 mass flow rate check value iteration history trace: 8.456613E-002,8.456613E-002,8.456613E-002,8.456613E-002,8.456613E-002,8.456613E-002,8.456613E-002,8.456613E-002,8.456613E-002,8.456613E-002,
   **   ~~~   ** Air System Named = CENTRAL SYSTEM did not converge for energy
   **   ~~~   ** Check values should be zero. Most Recent values listed first.
   **   ~~~   ** Demand-to-Supply interface energy check value iteration history trace: 1675.890542,1675.890542,1675.890542,1675.890542,1675.890541,1675.890541,1675.890541,1675.890541,1675.890541,1675.890541,
   **   ~~~   ** Supply-to-demand interface deck 1 energy check value iteration history trace: 2928.239271,2928.239271,2928.239271,2928.239271,2928.239271,2928.239271,2928.239271,2928.239271,2928.239271,2928.239270,
   ** Warning ** SimHVAC: Maximum iterations (20) exceeded for all HVAC loops, at ANNUAL, 02/19 18:45 - 18:50
   **   ~~~   ** The solution for one or more of the Air Loop HVAC systems did not appear to converge
   **   ~~~   ** Air System Named = CENTRAL SYSTEM did not converge for mass flow rate
   **   ~~~   ** Check values should be zero. Most Recent values listed first.
   **   ~~~   ** Demand-to-Supply interface mass flow rate check value iteration history trace: 9.093808E-002,9.093808E-002,9.093808E-002,9.093808E-002,9.093808E-002,9.093808E-002,9.093808E-002,9.093808E-002,9.093808E-002,9.093808E-002,
   **   ~~~   ** Supply-to-demand interface deck 1 mass flow rate check value iteration history trace: 9.093808E-002,9.093808E-002,9.093808E-002,9.093808E-002,9.093808E-002,9.093808E-002,9.093808E-002,9.093808E-002,9.093808E-002,9.093808E-002,
   **   ~~~   ** Air System Named = CENTRAL SYSTEM did not converge for energy
   **   ~~~   ** Check values should be zero. Most Recent values listed first.
   **   ~~~   ** Demand-to-Supply interface energy check value iteration history trace: 1796.862485,1796.862485,1796.862484,1796.862484,1796.862484,1796.862484,1796.862484,1796.862484,1796.862484,1796.862484,
   **   ~~~   ** Supply-to-demand interface deck 1 energy check value iteration history trace: 2912.806433,2912.806433,2912.806433,2912.806433,2912.806433,2912.806432,2912.806432,2912.806432,2912.806432,2912.806432,
   ** Warning ** SimHVAC: Maximum iterations (20) exceeded for all HVAC loops, at ANNUAL, 04/18 09:03 - 09:04
   **   ~~~   ** The solution for one or more of the Air Loop HVAC systems did not appear to converge
   **   ~~~   ** Air System Named = CENTRAL SYSTEM did not converge for mass flow rate
   **   ~~~   ** Check values should be zero. Most Recent values listed first.
   **   ~~~   ** Demand-to-Supply interface mass flow rate check value iteration history trace: 6.072575E-002,6.072575E-002,6.072575E-002,6.072575E-002,6.072575E-002,6.072575E-002,6.072575E-002,6.072575E-002,6.072575E-002,6.072575E-002,
   **   ~~~   ** Supply-to-demand interface deck 1 mass flow rate check value iteration history trace: 6.072575E-002,6.072575E-002,6.072575E-002,6.072575E-002,6.072575E-002,6.072575E-002,6.072575E-002,6.072575E-002,6.072575E-002,6.072575E-002,
   **   ~~~   ** Air System Named = CENTRAL SYSTEM did not converge for energy
   **   ~~~   ** Check values should be zero. Most Recent values listed first.
   **   ~~~   ** Demand-to-Supply interface energy check value iteration history trace: 1200.209783,1200.209783,1200.209783,1200.209783,1200.209783,1200.209783,1200.209783,1200.209783,1200.209783,1200.209783,
   **   ~~~   ** Supply-to-demand interface deck 1 energy check value iteration history trace: 2143.896829,2143.896828,2143.896828,2143.896828,2143.896828,2143.896828,2143.896828,2143.896828,2143.896828,2143.896828,
   ** Warning ** SimHVAC: Maximum iterations (20) exceeded for all HVAC loops, at ANNUAL, 10/26 06:15 - 06:30
   **   ~~~   ** The solution for one or more of the Air Loop HVAC systems did not appear to converge
   **   ~~~   ** Air System Named = CENTRAL SYSTEM did not converge for mass flow rate
   **   ~~~   ** Check values should be zero. Most Recent values listed first.
   **   ~~~   ** Demand-to-Supply interface mass flow rate check value iteration history trace: 7.097375E-002,7.097375E-002,7.097375E-002,7.097375E-002,7.097375E-002,7.097375E-002,7.097375E-002,7.097375E-002,7.097375E-002,7.097375E-002,
   **   ~~~   ** Supply-to-demand interface deck 1 mass flow rate check value iteration history trace: 7.097375E-002,7.097375E-002,7.097375E-002,7.097375E-002,7.097375E-002,7.097375E-002,7.097375E-002,7.097375E-002,7.097375E-002,7.097375E-002,
   **   ~~~   ** Air System Named = CENTRAL SYSTEM did not converge for energy
   **   ~~~   ** Check values should be zero. Most Recent values listed first.
   **   ~~~   ** Demand-to-Supply interface energy check value iteration history trace: 1405.694674,1405.694674,1405.694674,1405.694674,1405.694674,1405.694673,1405.694673,1405.694673,1405.694673,1405.694673,
   **   ~~~   ** Supply-to-demand interface deck 1 energy check value iteration history trace: 2435.757664,2435.757664,2435.757664,2435.757664,2435.757664,2435.757664,2435.757663,2435.757663,2435.757663,2435.757663,
   ** Warning ** SimHVAC: Maximum iterations (20) exceeded for all HVAC loops, at ANNUAL, 12/24 18:30 - 18:38
   **   ~~~   ** The solution for one or more of the Air Loop HVAC systems did not appear to converge
   **   ~~~   ** Air System Named = CENTRAL SYSTEM did not converge for mass flow rate
   **   ~~~   ** Check values should be zero. Most Recent values listed first.
   **   ~~~   ** Demand-to-Supply interface mass flow rate check value iteration history trace: 7.401363E-002,7.401363E-002,7.401363E-002,7.401363E-002,7.401363E-002,7.401363E-002,7.401363E-002,7.401363E-002,7.401363E-002,7.401363E-002,
   **   ~~~   ** Supply-to-demand interface deck 1 mass flow rate check value iteration history trace: 7.401363E-002,7.401363E-002,7.401363E-002,7.401363E-002,7.401363E-002,7.401363E-002,7.401363E-002,7.401363E-002,7.401363E-002,7.401363E-002,
   **   ~~~   ** Air System Named = CENTRAL SYSTEM did not converge for energy
   **   ~~~   ** Check values should be zero. Most Recent values listed first.
   **   ~~~   ** Demand-to-Supply interface energy check value iteration history trace: 1467.445294,1467.445294,1467.445294,1467.445294,1467.445294,1467.445294,1467.445294,1467.445294,1467.445294,1467.445294,
   **   ~~~   ** Supply-to-demand interface deck 1 energy check value iteration history trace: 2584.535441,2584.535441,2584.535441,2584.535441,2584.535440,2584.535440,2584.535440,2584.535440,2584.535440,2584.535440,
   ** Warning ** SimHVAC: Maximum iterations (20) exceeded for all HVAC loops, at ANNUAL, 12/30 10:30 - 10:32
   **   ~~~   ** The solution for one or more of the Air Loop HVAC systems did not appear to converge
   **   ~~~   ** Air System Named = CENTRAL SYSTEM did not converge for mass flow rate
   **   ~~~   ** Check values should be zero. Most Recent values listed first.
   **   ~~~   ** Demand-to-Supply interface mass flow rate check value iteration history trace: 9.219302E-002,9.219302E-002,9.219302E-002,9.219302E-002,9.219302E-002,9.219302E-002,9.219302E-002,9.219302E-002,9.219302E-002,9.219302E-002,
   **   ~~~   ** Supply-to-demand interface deck 1 mass flow rate check value iteration history trace: 9.219302E-002,9.219302E-002,9.219302E-002,9.219302E-002,9.219302E-002,9.219302E-002,9.219302E-002,9.219302E-002,9.219302E-002,9.219302E-002,
   **   ~~~   ** Air System Named = CENTRAL SYSTEM did not converge for energy
   **   ~~~   ** Check values should be zero. Most Recent values listed first.
   **   ~~~   ** Demand-to-Supply interface energy check value iteration history trace: 1823.426273,1823.426273,1823.426273,1823.426273,1823.426273,1823.426273,1823.426272,1823.426272,1823.426272,1823.426272,
   **   ~~~   ** Supply-to-demand interface deck 1 energy check value iteration history trace: 2867.572975,2867.572975,2867.572975,2867.572975,2867.572975,2867.572974,2867.572974,2867.572974,2867.572974,2867.572974,
   ************* Simulation Error Summary *************
   ** Warning ** The following Report Variables were requested but not generated -- check.rdd file
   **   ~~~   ** Either the IDF did not contain these elements, the variable name is misspelled,
   **   ~~~   ** or the requested variable is an advanced output which requires Output : Diagnostics, DisplayAdvancedReportVariables;
   ************* Key=*, VarName=BASEBOARD TOTAL HEATING ENERGY, Frequency=
   ************* Key=*, VarName=WATER HEATER NATURALGAS ENERGY, Frequency=
   ************* Key=*, VarName=COOLING COIL TOTAL HEATING ENERGY, Frequency=
   ************* There are 34 unused schedules in input.
   ************* There are 388 unused week schedules in input.
   ************* There are 396 unused day schedules in input.
   ************* Use Output:Diagnostics,DisplayUnusedSchedules; to see them.
   *************
   ************* ===== Recurring Error Summary =====
   ************* The following recurring error messages occurred.
   *************
   *************  ** Warning ** "TOTAL HOT WATER LOAD" - Target water temperature should be less than or equal to the hot water temperature error continues...
   *************  **   ~~~   **   This error occurred 142169 total times;
   *************  **   ~~~   **   during Warmup 0 times;
   *************  **   ~~~   **   during Sizing 0 times.
   *************  **   ~~~   **   Max=8.76312  Min=1.128690E-005
   *************
   *************
   ************* ===== Final Error Summary =====
   ************* The following error categories occurred.  Consider correcting or noting.
   ************* Nominally Unused Constructions
   ************* ..The nominally unused constructions warning is provided to alert you to potential conditions that can cause
   ************* ..extra time during simulation. Each construction is calculated by the algorithm indicated in the HeatBalanceAlgorithm
   ************* ..object. You may remove the constructions indicated (when you use the DisplayExtraWarnings option).
   *************
   ************* EnergyPlus Warmup Error Summary. During Warmup: 1 Warning; 0 Severe Errors.
   ************* EnergyPlus Sizing Error Summary. During Sizing: 4 Warning; 0 Severe Errors.
   ************* EnergyPlus Completed Successfully-- 142195 Warning; 0 Severe Errors; Elapsed Time=00hr 06min 33.14sec
