Program Version,EnergyPlus, Version 22.2.0-c249759bad, YMD=2023.09.01 20:01,
   ************* Beginning Zone Sizing Calculations
   ** Warning ** ProcessScheduleInput: Schedule:Constant="ALWAYS ON DISCRETE", Schedule Type Limits Name="ONOFF" not found -- will not be validated
   ** Warning ** Foundation:Kiva="KIVA FOUNDATION", no Interior Horizontal Insulation Material Name defined
   **   ~~~   ** Interior Horizontal Insulation Depth will not be used.
   ** Warning ** CheckUsedConstructions: There are 15 nominally unused constructions in input.
   **   ~~~   ** Each Unused construction is shown.
   ************* Construction=INTERIOR FLOOR
   ************* Construction=INTERIOR WINDOW
   ************* Construction=EXTERIOR DOOR
   ************* Construction=INTERIOR DOOR
   ************* Construction=GABLE CONSTRUCTION
   ************* Construction=CRAWL_FLOOR
   ************* Construction=INSULATED PIPE
   ************* Construction=PLAIN PIPE
   ************* Construction=TDD PIPE
   ************* Construction=TDD DOME
   ************* Construction=TDD DIFFUSER
   ************* Construction=CRAWL WALL
   ************* Construction=CEILING-FLOOR-LAYER
   ************* Construction=SLAB CONSTRUCTION W FULL R10 INSULATION
   ************* Construction=SLAB CONSTRUCTION W FULL R5 INSULATION
   ** Warning ** GetDXCoils: Coil:Heating:DX:SingleSpeed="DX_HEATING_COIL" curve values
   **   ~~~   ** ... Defrost Energy Input Ratio Function of Temperature Curve Name = DEFROSTEIR output is not equal to 1.0 (+ or - 10%) at rated conditions.
   **   ~~~   ** ... Curve output at rated conditions = 0.152
   ************* Beginning System Sizing Calculations
   ************* Beginning Plant Sizing Calculations
   ** Warning ** Coil:WaterHeating:AirToWaterHeatPump:Wrapped "HEAT PUMP WATER HEATER EVAPORATOR": Rated air volume flow rate per watt of rated total water heating capacity is out of range
   **   ~~~   ** Min Rated Vol Flow Per Watt=[4.027E-005], Rated Vol Flow Per Watt=[1.510E-004], Max Rated Vol Flow Per Watt=[8.056E-005]. See Input-Output Reference Manual for valid range.
   ************* SizeFan: : Potential issue with equipment sizing for Fan:OnOff HEAT PUMP WATER HEATER FAN
   **   ~~~   ** User-Specified Maximum Flow Rate [m3/s] = 0.22653
   **   ~~~   ** differs from Design Size Maximum Flow Rate [m3/s] = 7.55250E-002
   **   ~~~   ** This may, or may not, indicate mismatched component sizes.
   **   ~~~   ** Verify that the value entered is intended and is consistent with other components.
   ** Warning ** Water heater = WATER HEATER TANK:  Recovery Efficiency and Energy Factor could not be calculated during the test for standard ratings
   **   ~~~   ** Setpoint was never recovered and/or heater never turned on
   ** Warning ** Check input. Pump nominal power or motor efficiency is set to 0, for pump=MAINS PRESSURE
   ** Warning ** Output:Meter: invalid Key Name="ELECTRIC_RANGE:INTERIOREQUIPMENT:ELECTRICITY" - not found.
   ** Warning ** Output:Meter: invalid Key Name="ELECTRIC_DRYER:INTERIOREQUIPMENT:ELECTRICITY" - not found.
   ** Warning ** Output:Meter: invalid Key Name="HEATRECOVERY:ELECTRICITY" - not found.
   ** Warning ** Output:Meter: invalid Key Name="HEATING:NATURALGAS" - not found.
   ** Warning ** Output:Meter: invalid Key Name="WATERSYSTEMS:NATURALGAS" - not found.
   ** Warning ** Output:Meter: invalid Key Name="PROPANE:FACILITY" - not found.
   ** Warning ** Output:Meter: invalid Key Name="HEATING:PROPANE" - not found.
   ************* Testing Individual Branch Integrity
   ************* All Branches passed integrity testing
   ************* Testing Individual Supply Air Path Integrity
   ************* All Supply Air Paths passed integrity testing
   ************* Testing Individual Return Air Path Integrity
   ************* All Return Air Paths passed integrity testing
   ************* No node connection errors were found.
   ************* Beginning Simulation
   ** Warning ** AirflowNetwork::Solver::validate_distribution: Heat pump water heater is simulated along with an AirflowNetwork but is not included in the AirflowNetwork.
   ** Warning ** CalcEquipmentFlowRates: "TOTAL HOT WATER LOAD" - Target water temperature is greater than the hot water temperature by (3.61 C)
   **   ~~~   **  Environment=EXTREME_WINTER, at Simulation time=12/15 07:00 - 07:15
   **   ~~~   ** ...target water temperature     = 53.33 C
   **   ~~~   ** ...hot water temperature        = 49.73 C
   **   ~~~   ** ...Target water temperature should be less than or equal to the hot water temperature. Verify temperature setpoints and schedules.
   ** Warning ** SimHVAC: Maximum iterations (20) exceeded for all HVAC loops, at ANNUAL, 01/02 12:15 - 12:22
   **   ~~~   ** The solution for one or more of the Air Loop HVAC systems did not appear to converge
   **   ~~~   ** Air System Named = CENTRAL SYSTEM did not converge for mass flow rate
   **   ~~~   ** Check values should be zero. Most Recent values listed first.
   **   ~~~   ** Demand-to-Supply interface mass flow rate check value iteration history trace: 8.241832E-002,8.241832E-002,8.241832E-002,8.241832E-002,8.241832E-002,8.241832E-002,8.241832E-002,8.241832E-002,8.241832E-002,8.241832E-002,
   **   ~~~   ** Supply-to-demand interface deck 1 mass flow rate check value iteration history trace: 8.241832E-002,8.241832E-002,8.241832E-002,8.241832E-002,8.241832E-002,8.241832E-002,8.241832E-002,8.241832E-002,8.241832E-002,8.241832E-002,
   **   ~~~   ** Air System Named = CENTRAL SYSTEM did not converge for energy
   **   ~~~   ** Check values should be zero. Most Recent values listed first.
   **   ~~~   ** Demand-to-Supply interface energy check value iteration history trace: 1633.078527,1633.078527,1633.078527,1633.078527,1633.078527,1633.078527,1633.078527,1633.078527,1633.078526,1633.078526,
   **   ~~~   ** Supply-to-demand interface deck 1 energy check value iteration history trace: 2460.492812,2460.492812,2460.492812,2460.492812,2460.492811,2460.492811,2460.492811,2460.492811,2460.492811,2460.492811,
   ** Warning ** SimHVAC: Maximum iterations (20) exceeded for all HVAC loops, at ANNUAL, 01/29 13:15 - 13:30
   **   ~~~   ** The solution for one or more of the Air Loop HVAC systems did not appear to converge
   **   ~~~   ** Air System Named = CENTRAL SYSTEM did not converge for mass flow rate
   **   ~~~   ** Check values should be zero. Most Recent values listed first.
   **   ~~~   ** Demand-to-Supply interface mass flow rate check value iteration history trace: 7.568307E-002,7.568307E-002,7.568307E-002,7.568307E-002,7.568307E-002,7.568307E-002,7.568307E-002,7.568307E-002,7.568307E-002,7.568307E-002,
   **   ~~~   ** Supply-to-demand interface deck 1 mass flow rate check value iteration history trace: 7.568307E-002,7.568307E-002,7.568307E-002,7.568307E-002,7.568307E-002,7.568307E-002,7.568307E-002,7.568307E-002,7.568307E-002,7.568307E-002,
   **   ~~~   ** Air System Named = CENTRAL SYSTEM did not converge for energy
   **   ~~~   ** Check values should be zero. Most Recent values listed first.
   **   ~~~   ** Demand-to-Supply interface energy check value iteration history trace: 1501.498622,1501.498622,1501.498621,1501.498621,1501.498621,1501.498620,1501.498620,1501.498620,1501.498619,1501.498619,
   **   ~~~   ** Supply-to-demand interface deck 1 energy check value iteration history trace: 2371.103394,2371.103394,2371.103393,2371.103393,2371.103392,2371.103392,2371.103391,2371.103391,2371.103390,2371.103390,
   **   ~~~   ** Node named ZONE INLET NODE shows oscillating temperatures across iterations with a repeated value of 31.178352
   **   ~~~   ** Node named ZONE INLET NODE temperature [C] iteration history trace (most recent first): 31.178352,31.178352,31.178352,31.178351,31.178351,31.178351,31.178351,31.178351,31.178350,31.178350,
   ** Warning ** SimHVAC: Maximum iterations (20) exceeded for all HVAC loops, at ANNUAL, 01/30 22:15 - 22:20
   **   ~~~   ** The solution for one or more of the Air Loop HVAC systems did not appear to converge
   **   ~~~   ** Air System Named = CENTRAL SYSTEM did not converge for mass flow rate
   **   ~~~   ** Check values should be zero. Most Recent values listed first.
   **   ~~~   ** Demand-to-Supply interface mass flow rate check value iteration history trace: 6.686368E-002,6.686368E-002,6.686368E-002,6.686368E-002,6.686368E-002,6.686368E-002,6.686368E-002,6.686368E-002,6.686368E-002,6.686368E-002,
   **   ~~~   ** Supply-to-demand interface deck 1 mass flow rate check value iteration history trace: 6.686368E-002,6.686368E-002,6.686368E-002,6.686368E-002,6.686368E-002,6.686368E-002,6.686368E-002,6.686368E-002,6.686368E-002,6.686368E-002,
   **   ~~~   ** Air System Named = CENTRAL SYSTEM did not converge for energy
   **   ~~~   ** Check values should be zero. Most Recent values listed first.
   **   ~~~   ** Demand-to-Supply interface energy check value iteration history trace: 1279.438311,1279.438311,1279.438311,1279.438311,1279.438311,1279.438311,1279.438310,1279.438310,1279.438310,1279.438310,
   **   ~~~   ** Supply-to-demand interface deck 1 energy check value iteration history trace: 2221.399475,2221.399475,2221.399475,2221.399475,2221.399475,2221.399474,2221.399474,2221.399474,2221.399474,2221.399474,
   ** Warning ** SimHVAC: Maximum iterations (20) exceeded for all HVAC loops, at ANNUAL, 02/02 22:00 - 22:05
   **   ~~~   ** The solution for one or more of the Air Loop HVAC systems did not appear to converge
   **   ~~~   ** Air System Named = CENTRAL SYSTEM did not converge for mass flow rate
   **   ~~~   ** Check values should be zero. Most Recent values listed first.
   **   ~~~   ** Demand-to-Supply interface mass flow rate check value iteration history trace: 0.142262,0.142262,0.142262,0.142262,0.142262,0.142262,0.142262,0.142262,0.142262,0.142262,
   **   ~~~   ** Supply-to-demand interface deck 1 mass flow rate check value iteration history trace: 0.142262,0.142262,0.142262,0.142262,0.142262,0.142262,0.142262,0.142262,0.142262,0.142262,
   **   ~~~   ** Air System Named = CENTRAL SYSTEM did not converge for energy
   **   ~~~   ** Check values should be zero. Most Recent values listed first.
   **   ~~~   ** Demand-to-Supply interface energy check value iteration history trace: 2817.672209,2817.672209,2817.672208,2817.672208,2817.672208,2817.672208,2817.672207,2817.672207,2817.672207,2817.672206,
   **   ~~~   ** Supply-to-demand interface deck 1 energy check value iteration history trace: 3733.398085,3733.398084,3733.398084,3733.398084,3733.398083,3733.398083,3733.398082,3733.398082,3733.398082,3733.398081,
   ** Warning ** SimHVAC: Maximum iterations (20) exceeded for all HVAC loops, at ANNUAL, 03/03 13:35 - 13:40
   **   ~~~   ** The solution for one or more of the Air Loop HVAC systems did not appear to converge
   **   ~~~   ** Air System Named = CENTRAL SYSTEM did not converge for mass flow rate
   **   ~~~   ** Check values should be zero. Most Recent values listed first.
   **   ~~~   ** Demand-to-Supply interface mass flow rate check value iteration history trace: 7.329975E-002,7.329975E-002,7.329975E-002,7.329975E-002,7.329975E-002,7.329975E-002,7.329975E-002,7.329975E-002,7.329975E-002,7.329975E-002,
   **   ~~~   ** Supply-to-demand interface deck 1 mass flow rate check value iteration history trace: 7.329975E-002,7.329975E-002,7.329975E-002,7.329975E-002,7.329975E-002,7.329975E-002,7.329975E-002,7.329975E-002,7.329975E-002,7.329975E-002,
   **   ~~~   ** Air System Named = CENTRAL SYSTEM did not converge for energy
   **   ~~~   ** Check values should be zero. Most Recent values listed first.
   **   ~~~   ** Demand-to-Supply interface energy check value iteration history trace: 1445.944385,1445.944385,1445.944385,1445.944385,1445.944385,1445.944384,1445.944384,1445.944384,1445.944384,1445.944384,
   **   ~~~   ** Supply-to-demand interface deck 1 energy check value iteration history trace: 2272.901310,2272.901310,2272.901309,2272.901309,2272.901309,2272.901309,2272.901309,2272.901309,2272.901309,2272.901308,
   ** Warning ** SimHVAC: Maximum iterations (20) exceeded for all HVAC loops, at ANNUAL, 03/04 22:45 - 22:52
   **   ~~~   ** The solution for one or more of the Air Loop HVAC systems did not appear to converge
   **   ~~~   ** Air System Named = CENTRAL SYSTEM did not converge for mass flow rate
   **   ~~~   ** Check values should be zero. Most Recent values listed first.
   **   ~~~   ** Demand-to-Supply interface mass flow rate check value iteration history trace: 9.150881E-002,9.150881E-002,9.150881E-002,9.150881E-002,9.150881E-002,9.150881E-002,9.150881E-002,9.150881E-002,9.150881E-002,9.150881E-002,
   **   ~~~   ** Supply-to-demand interface deck 1 mass flow rate check value iteration history trace: 9.150881E-002,9.150881E-002,9.150881E-002,9.150881E-002,9.150881E-002,9.150881E-002,9.150881E-002,9.150881E-002,9.150881E-002,9.150881E-002,
   **   ~~~   ** Air System Named = CENTRAL SYSTEM did not converge for energy
   **   ~~~   ** Check values should be zero. Most Recent values listed first.
   **   ~~~   ** Demand-to-Supply interface energy check value iteration history trace: 1705.537797,1705.537797,1705.537796,1705.537796,1705.537796,1705.537796,1705.537796,1705.537796,1705.537796,1705.537796,
   **   ~~~   ** Supply-to-demand interface deck 1 energy check value iteration history trace: 2697.239418,2697.239418,2697.239418,2697.239417,2697.239417,2697.239417,2697.239417,2697.239417,2697.239417,2697.239416,
   ** Warning ** SimHVAC: Maximum iterations (20) exceeded for all HVAC loops, at ANNUAL, 03/10 21:00 - 21:08
   **   ~~~   ** The solution for one or more of the Air Loop HVAC systems did not appear to converge
   **   ~~~   ** Air System Named = CENTRAL SYSTEM did not converge for mass flow rate
   **   ~~~   ** Check values should be zero. Most Recent values listed first.
   **   ~~~   ** Demand-to-Supply interface mass flow rate check value iteration history trace: 6.568473E-002,6.568473E-002,6.568473E-002,6.568473E-002,6.568473E-002,6.568473E-002,6.568473E-002,6.568473E-002,6.568473E-002,6.568473E-002,
   **   ~~~   ** Supply-to-demand interface deck 1 mass flow rate check value iteration history trace: 6.568473E-002,6.568473E-002,6.568473E-002,6.568473E-002,6.568473E-002,6.568473E-002,6.568473E-002,6.568473E-002,6.568473E-002,6.568473E-002,
   **   ~~~   ** Air System Named = CENTRAL SYSTEM did not converge for energy
   **   ~~~   ** Check values should be zero. Most Recent values listed first.
   **   ~~~   ** Demand-to-Supply interface energy check value iteration history trace: 1301.284734,1301.284734,1301.284734,1301.284734,1301.284734,1301.284734,1301.284734,1301.284734,1301.284734,1301.284734,
   **   ~~~   ** Supply-to-demand interface deck 1 energy check value iteration history trace: 2234.384052,2234.384052,2234.384052,2234.384052,2234.384052,2234.384052,2234.384052,2234.384052,2234.384052,2234.384051,
   ** Warning ** SimHVAC: Maximum iterations (20) exceeded for all HVAC loops, at ANNUAL, 03/25 11:25 - 11:30
   **   ~~~   ** The solution for one or more of the Air Loop HVAC systems did not appear to converge
   **   ~~~   ** Air System Named = CENTRAL SYSTEM did not converge for mass flow rate
   **   ~~~   ** Check values should be zero. Most Recent values listed first.
   **   ~~~   ** Demand-to-Supply interface mass flow rate check value iteration history trace: 6.005856E-002,6.005856E-002,6.005856E-002,6.005856E-002,6.005856E-002,6.005856E-002,6.005856E-002,6.005856E-002,6.005856E-002,6.005856E-002,
   **   ~~~   ** Supply-to-demand interface deck 1 mass flow rate check value iteration history trace: 6.005856E-002,6.005856E-002,6.005856E-002,6.005856E-002,6.005856E-002,6.005856E-002,6.005856E-002,6.005856E-002,6.005856E-002,6.005856E-002,
   **   ~~~   ** Air System Named = CENTRAL SYSTEM did not converge for energy
   **   ~~~   ** Check values should be zero. Most Recent values listed first.
   **   ~~~   ** Demand-to-Supply interface energy check value iteration history trace: 1178.507926,1178.507926,1178.507926,1178.507926,1178.507926,1178.507926,1178.507926,1178.507926,1178.507926,1178.507926,
   **   ~~~   ** Supply-to-demand interface deck 1 energy check value iteration history trace: 2107.342964,2107.342963,2107.342963,2107.342963,2107.342963,2107.342963,2107.342963,2107.342963,2107.342963,2107.342963,
   **   ~~~   ** Node named ZONE INLET NODE shows oscillating temperatures across iterations with a repeated value of 34.918991
   **   ~~~   ** Node named ZONE INLET NODE temperature [C] iteration history trace (most recent first): 34.918991,34.918991,34.918991,34.918990,34.918990,34.918990,34.918990,34.918990,34.918989,34.918989,
   ** Warning ** SimHVAC: Maximum iterations (20) exceeded for all HVAC loops, at ANNUAL, 03/27 10:30 - 10:45
   **   ~~~   ** The solution for one or more of the Air Loop HVAC systems did not appear to converge
   **   ~~~   ** Air System Named = CENTRAL SYSTEM did not converge for mass flow rate
   **   ~~~   ** Check values should be zero. Most Recent values listed first.
   **   ~~~   ** Demand-to-Supply interface mass flow rate check value iteration history trace: 6.987149E-002,6.987149E-002,6.987149E-002,6.987149E-002,6.987149E-002,6.987149E-002,6.987149E-002,6.987149E-002,6.987149E-002,6.987149E-002,
   **   ~~~   ** Supply-to-demand interface deck 1 mass flow rate check value iteration history trace: 6.987149E-002,6.987149E-002,6.987149E-002,6.987149E-002,6.987149E-002,6.987149E-002,6.987149E-002,6.987149E-002,6.987149E-002,6.987149E-002,
   **   ~~~   ** Air System Named = CENTRAL SYSTEM did not converge for energy
   **   ~~~   ** Check values should be zero. Most Recent values listed first.
   **   ~~~   ** Demand-to-Supply interface energy check value iteration history trace: 1384.158424,1384.158424,1384.158424,1384.158424,1384.158424,1384.158424,1384.158424,1384.158424,1384.158424,1384.158423,
   **   ~~~   ** Supply-to-demand interface deck 1 energy check value iteration history trace: 2442.916616,2442.916616,2442.916616,2442.916616,2442.916616,2442.916616,2442.916616,2442.916616,2442.916616,2442.916615,
   ** Warning ** SimHVAC: Maximum iterations (20) exceeded for all HVAC loops, at ANNUAL, 04/02 12:00 - 12:15
   **   ~~~   ** The solution for one or more of the Air Loop HVAC systems did not appear to converge
   **   ~~~   ** Air System Named = CENTRAL SYSTEM did not converge for mass flow rate
   **   ~~~   ** Check values should be zero. Most Recent values listed first.
   **   ~~~   ** Demand-to-Supply interface mass flow rate check value iteration history trace: 6.646730E-002,6.646730E-002,6.646730E-002,6.646730E-002,6.646730E-002,6.646730E-002,6.646730E-002,6.646730E-002,6.646730E-002,6.646730E-002,
   **   ~~~   ** Supply-to-demand interface deck 1 mass flow rate check value iteration history trace: 6.646730E-002,6.646730E-002,6.646730E-002,6.646730E-002,6.646730E-002,6.646730E-002,6.646730E-002,6.646730E-002,6.646730E-002,6.646730E-002,
   **   ~~~   ** Air System Named = CENTRAL SYSTEM did not converge for energy
   **   ~~~   ** Check values should be zero. Most Recent values listed first.
   **   ~~~   ** Demand-to-Supply interface energy check value iteration history trace: 1317.122252,1317.122252,1317.122252,1317.122252,1317.122252,1317.122252,1317.122252,1317.122252,1317.122252,1317.122252,
   **   ~~~   ** Supply-to-demand interface deck 1 energy check value iteration history trace: 2316.628254,2316.628254,2316.628254,2316.628254,2316.628254,2316.628254,2316.628254,2316.628253,2316.628253,2316.628253,
   ** Warning ** SimHVAC: Maximum iterations (20) exceeded for all HVAC loops, at ANNUAL, 04/03 17:15 - 17:30
   **   ~~~   ** The solution for one or more of the Air Loop HVAC systems did not appear to converge
   **   ~~~   ** Air System Named = CENTRAL SYSTEM did not converge for mass flow rate
   **   ~~~   ** Check values should be zero. Most Recent values listed first.
   **   ~~~   ** Demand-to-Supply interface mass flow rate check value iteration history trace: 5.882683E-002,5.882683E-002,5.882683E-002,5.882683E-002,5.882683E-002,5.882683E-002,5.882683E-002,5.882683E-002,5.882683E-002,5.882683E-002,
   **   ~~~   ** Supply-to-demand interface deck 1 mass flow rate check value iteration history trace: 5.882683E-002,5.882683E-002,5.882683E-002,5.882683E-002,5.882683E-002,5.882683E-002,5.882683E-002,5.882683E-002,5.882683E-002,5.882683E-002,
   **   ~~~   ** Air System Named = CENTRAL SYSTEM did not converge for energy
   **   ~~~   ** Check values should be zero. Most Recent values listed first.
   **   ~~~   ** Demand-to-Supply interface energy check value iteration history trace: 1144.844853,1144.844853,1144.844852,1144.844852,1144.844852,1144.844852,1144.844852,1144.844852,1144.844852,1144.844852,
   **   ~~~   ** Supply-to-demand interface deck 1 energy check value iteration history trace: 2016.969744,2016.969744,2016.969744,2016.969744,2016.969744,2016.969744,2016.969744,2016.969744,2016.969743,2016.969743,
   ** Warning ** SimHVAC: Maximum iterations (20) exceeded for all HVAC loops, at ANNUAL, 04/06 11:00 - 11:15
   **   ~~~   ** The solution for one or more of the Air Loop HVAC systems did not appear to converge
   **   ~~~   ** Air System Named = CENTRAL SYSTEM did not converge for mass flow rate
   **   ~~~   ** Check values should be zero. Most Recent values listed first.
   **   ~~~   ** Demand-to-Supply interface mass flow rate check value iteration history trace: 6.068849E-002,6.068849E-002,6.068849E-002,6.068849E-002,6.068849E-002,6.068849E-002,6.068849E-002,6.068849E-002,6.068849E-002,6.068849E-002,
   **   ~~~   ** Supply-to-demand interface deck 1 mass flow rate check value iteration history trace: 6.068849E-002,6.068849E-002,6.068849E-002,6.068849E-002,6.068849E-002,6.068849E-002,6.068849E-002,6.068849E-002,6.068849E-002,6.068849E-002,
   **   ~~~   ** Air System Named = CENTRAL SYSTEM did not converge for energy
   **   ~~~   ** Check values should be zero. Most Recent values listed first.
   **   ~~~   ** Demand-to-Supply interface energy check value iteration history trace: 1200.727062,1200.727062,1200.727062,1200.727062,1200.727062,1200.727062,1200.727062,1200.727062,1200.727062,1200.727062,
   **   ~~~   ** Supply-to-demand interface deck 1 energy check value iteration history trace: 2219.765996,2219.765996,2219.765996,2219.765996,2219.765996,2219.765996,2219.765996,2219.765995,2219.765995,2219.765995,
   ** Warning ** SimHVAC: Maximum iterations (20) exceeded for all HVAC loops, at ANNUAL, 04/23 10:45 - 11:00
   **   ~~~   ** The solution for one or more of the Air Loop HVAC systems did not appear to converge
   **   ~~~   ** Air System Named = CENTRAL SYSTEM did not converge for mass flow rate
   **   ~~~   ** Check values should be zero. Most Recent values listed first.
   **   ~~~   ** Demand-to-Supply interface mass flow rate check value iteration history trace: 6.482394E-002,6.482394E-002,6.482394E-002,6.482394E-002,6.482394E-002,6.482394E-002,6.482394E-002,6.482394E-002,6.482394E-002,6.482394E-002,
   **   ~~~   ** Supply-to-demand interface deck 1 mass flow rate check value iteration history trace: 6.482394E-002,6.482394E-002,6.482394E-002,6.482394E-002,6.482394E-002,6.482394E-002,6.482394E-002,6.482394E-002,6.482394E-002,6.482394E-002,
   **   ~~~   ** Air System Named = CENTRAL SYSTEM did not converge for energy
   **   ~~~   ** Check values should be zero. Most Recent values listed first.
   **   ~~~   ** Demand-to-Supply interface energy check value iteration history trace: 1283.168702,1283.168702,1283.168702,1283.168702,1283.168702,1283.168702,1283.168702,1283.168702,1283.168702,1283.168702,
   **   ~~~   ** Supply-to-demand interface deck 1 energy check value iteration history trace: 2297.265535,2297.265535,2297.265535,2297.265535,2297.265535,2297.265535,2297.265534,2297.265534,2297.265534,2297.265534,
   ** Warning ** SimHVAC: Maximum iterations (20) exceeded for all HVAC loops, at ANNUAL, 04/23 10:53 - 11:00
   **   ~~~   ** The solution for one or more of the Air Loop HVAC systems did not appear to converge
   **   ~~~   ** Air System Named = CENTRAL SYSTEM did not converge for mass flow rate
   **   ~~~   ** Check values should be zero. Most Recent values listed first.
   **   ~~~   ** Demand-to-Supply interface mass flow rate check value iteration history trace: 6.448692E-002,6.448692E-002,6.448692E-002,6.448692E-002,6.448692E-002,6.448692E-002,6.448692E-002,6.448692E-002,6.448692E-002,6.448692E-002,
   **   ~~~   ** Supply-to-demand interface deck 1 mass flow rate check value iteration history trace: 6.448692E-002,6.448692E-002,6.448692E-002,6.448692E-002,6.448692E-002,6.448692E-002,6.448692E-002,6.448692E-002,6.448692E-002,6.448692E-002,
   **   ~~~   ** Air System Named = CENTRAL SYSTEM did not converge for energy
   **   ~~~   ** Check values should be zero. Most Recent values listed first.
   **   ~~~   ** Demand-to-Supply interface energy check value iteration history trace: 1272.669134,1272.669134,1272.669134,1272.669134,1272.669134,1272.669134,1272.669134,1272.669134,1272.669134,1272.669134,
   **   ~~~   ** Supply-to-demand interface deck 1 energy check value iteration history trace: 2281.712075,2281.712075,2281.712075,2281.712075,2281.712075,2281.712075,2281.712075,2281.712075,2281.712075,2281.712074,
   ************* Simulation Error Summary *************
   ** Warning ** The following Report Variables were requested but not generated -- check.rdd file
   **   ~~~   ** Either the IDF did not contain these elements, the variable name is misspelled,
   **   ~~~   ** or the requested variable is an advanced output which requires Output : Diagnostics, DisplayAdvancedReportVariables;
   ************* Key=*, VarName=BASEBOARD TOTAL HEATING ENERGY, Frequency=
   ************* Key=*, VarName=WATER HEATER NATURALGAS ENERGY, Frequency=
   ************* Key=*, VarName=COOLING COIL TOTAL HEATING ENERGY, Frequency=
   ************* There are 34 unused schedules in input.
   ************* There are 388 unused week schedules in input.
   ************* There are 396 unused day schedules in input.
   ************* Use Output:Diagnostics,DisplayUnusedSchedules; to see them.
   *************
   ************* ===== Recurring Error Summary =====
   ************* The following recurring error messages occurred.
   *************
   *************  ** Warning ** "TOTAL HOT WATER LOAD" - Target water temperature should be less than or equal to the hot water temperature error continues...
   *************  **   ~~~   **   This error occurred 143343 total times;
   *************  **   ~~~   **   during Warmup 0 times;
   *************  **   ~~~   **   during Sizing 0 times.
   *************  **   ~~~   **   Max=14.606847  Min=3.822104E-004
   *************
   *************  ** Warning ** SimHVAC: Exceeding Maximum iterations for all HVAC loops, during ANNUAL continues
   *************  **   ~~~   **   This error occurred 18 total times;
   *************  **   ~~~   **   during Warmup 0 times;
   *************  **   ~~~   **   during Sizing 0 times.
   *************
   *************
   ************* ===== Final Error Summary =====
   ************* The following error categories occurred.  Consider correcting or noting.
   ************* Nominally Unused Constructions
   ************* ..The nominally unused constructions warning is provided to alert you to potential conditions that can cause
   ************* ..extra time during simulation. Each construction is calculated by the algorithm indicated in the HeatBalanceAlgorithm
   ************* ..object. You may remove the constructions indicated (when you use the DisplayExtraWarnings option).
   *************
   ************* EnergyPlus Warmup Error Summary. During Warmup: 1 Warning; 0 Severe Errors.
   ************* EnergyPlus Sizing Error Summary. During Sizing: 4 Warning; 0 Severe Errors.
   ************* EnergyPlus Completed Successfully-- 143392 Warning; 0 Severe Errors; Elapsed Time=00hr 01min 31.72sec
