Program Version,EnergyPlus, Version 22.2.0-c249759bad, YMD=2023.09.01 19:12,
   ************* Beginning Zone Sizing Calculations
   ** Warning ** ProcessScheduleInput: Schedule:Constant="ALWAYS ON DISCRETE", Schedule Type Limits Name="ONOFF" not found -- will not be validated
   ** Warning ** Foundation:Kiva="KIVA FOUNDATION", no Interior Horizontal Insulation Material Name defined
   **   ~~~   ** Interior Horizontal Insulation Depth will not be used.
   ** Warning ** CheckUsedConstructions: There are 15 nominally unused constructions in input.
   **   ~~~   ** Each Unused construction is shown.
   ************* Construction=INTERIOR FLOOR
   ************* Construction=INTERIOR WINDOW
   ************* Construction=EXTERIOR DOOR
   ************* Construction=INTERIOR DOOR
   ************* Construction=GABLE CONSTRUCTION
   ************* Construction=CRAWL_FLOOR
   ************* Construction=INSULATED PIPE
   ************* Construction=PLAIN PIPE
   ************* Construction=TDD PIPE
   ************* Construction=TDD DOME
   ************* Construction=TDD DIFFUSER
   ************* Construction=CRAWL WALL
   ************* Construction=CEILING-FLOOR-LAYER
   ************* Construction=SLAB CONSTRUCTION W FULL R10 INSULATION
   ************* Construction=SLAB CONSTRUCTION W FULL R5 INSULATION
   ** Warning ** GetDXCoils: Coil:Heating:DX:SingleSpeed="DX_HEATING_COIL" curve values
   **   ~~~   ** ... Defrost Energy Input Ratio Function of Temperature Curve Name = DEFROSTEIR output is not equal to 1.0 (+ or - 10%) at rated conditions.
   **   ~~~   ** ... Curve output at rated conditions = 0.152
   ************* Beginning System Sizing Calculations
   ************* Beginning Plant Sizing Calculations
   ** Warning ** SizeDXCoil Coil:Cooling:DX:SingleSpeed DX_COOLING_COIL
   **   ~~~   ** ...Gross Rated Total Cooling Capacity [W] will be limited by the maximum rated volume flow per rated total capacity ratio.
   **   ~~~   ** ...DX coil volume flow rate ( m3/s ) = 0.424330
   **   ~~~   ** ...Requested capacity ( W ) = 6557.804
   **   ~~~   ** ...Requested flow/capacity ratio ( m3/s/W ) = 6.470E-005
   **   ~~~   ** ...Maximum flow/capacity ratio ( m3/s/W ) = 6.041E-005
   **   ~~~   ** ...Adjusted capacity ( W ) = 7024.182
   ** Warning ** Coil:WaterHeating:AirToWaterHeatPump:Wrapped "HEAT PUMP WATER HEATER EVAPORATOR": Rated air volume flow rate per watt of rated total water heating capacity is out of range
   **   ~~~   ** Min Rated Vol Flow Per Watt=[4.027E-005], Rated Vol Flow Per Watt=[1.510E-004], Max Rated Vol Flow Per Watt=[8.056E-005]. See Input-Output Reference Manual for valid range.
   ************* SizeFan: : Potential issue with equipment sizing for Fan:OnOff HEAT PUMP WATER HEATER FAN
   **   ~~~   ** User-Specified Maximum Flow Rate [m3/s] = 0.22653
   **   ~~~   ** differs from Design Size Maximum Flow Rate [m3/s] = 7.55250E-002
   **   ~~~   ** This may, or may not, indicate mismatched component sizes.
   **   ~~~   ** Verify that the value entered is intended and is consistent with other components.
   ** Warning ** Water heater = WATER HEATER TANK:  Recovery Efficiency and Energy Factor could not be calculated during the test for standard ratings
   **   ~~~   ** Setpoint was never recovered and/or heater never turned on
   ** Warning ** Check input. Pump nominal power or motor efficiency is set to 0, for pump=MAINS PRESSURE
   ** Warning ** Output:Meter: invalid Key Name="ELECTRIC_RANGE:INTERIOREQUIPMENT:ELECTRICITY" - not found.
   ** Warning ** Output:Meter: invalid Key Name="ELECTRIC_DRYER:INTERIOREQUIPMENT:ELECTRICITY" - not found.
   ** Warning ** Output:Meter: invalid Key Name="HEATRECOVERY:ELECTRICITY" - not found.
   ** Warning ** Output:Meter: invalid Key Name="HEATING:NATURALGAS" - not found.
   ** Warning ** Output:Meter: invalid Key Name="WATERSYSTEMS:NATURALGAS" - not found.
   ** Warning ** Output:Meter: invalid Key Name="PROPANE:FACILITY" - not found.
   ** Warning ** Output:Meter: invalid Key Name="HEATING:PROPANE" - not found.
   ************* Testing Individual Branch Integrity
   ************* All Branches passed integrity testing
   ************* Testing Individual Supply Air Path Integrity
   ************* All Supply Air Paths passed integrity testing
   ************* Testing Individual Return Air Path Integrity
   ************* All Return Air Paths passed integrity testing
   ************* No node connection errors were found.
   ************* Beginning Simulation
   ** Warning ** AirflowNetwork::Solver::validate_distribution: Heat pump water heater is simulated along with an AirflowNetwork but is not included in the AirflowNetwork.
   ** Warning ** CalcEquipmentFlowRates: "TOTAL HOT WATER LOAD" - Target water temperature is greater than the hot water temperature by (1.13 C)
   **   ~~~   **  Environment=EXTREME_WINTER, at Simulation time=01/06 06:45 - 07:00
   **   ~~~   ** ...target water temperature     = 53.33 C
   **   ~~~   ** ...hot water temperature        = 52.20 C
   **   ~~~   ** ...Target water temperature should be less than or equal to the hot water temperature. Verify temperature setpoints and schedules.
   ** Warning ** SimHVAC: Maximum iterations (20) exceeded for all HVAC loops, at EXTREME_SUMMER, 07/19 04:15 - 04:30
   **   ~~~   ** The solution for one or more of the Air Loop HVAC systems did not appear to converge
   **   ~~~   ** Air System Named = CENTRAL SYSTEM did not converge for mass flow rate
   **   ~~~   ** Check values should be zero. Most Recent values listed first.
   **   ~~~   ** Demand-to-Supply interface mass flow rate check value iteration history trace: 0.100454,0.100454,0.100454,0.100454,0.100454,0.100454,0.100454,0.100454,0.100454,0.100454,
   **   ~~~   ** Supply-to-demand interface deck 1 mass flow rate check value iteration history trace: 0.100454,0.100454,0.100454,0.100454,0.100454,0.100454,0.100454,0.100454,0.100454,0.100454,
   **   ~~~   ** Air System Named = CENTRAL SYSTEM did not converge for energy
   **   ~~~   ** Check values should be zero. Most Recent values listed first.
   **   ~~~   ** Demand-to-Supply interface energy check value iteration history trace: 2517.635349,2517.635350,2517.635351,2517.635352,2517.635353,2517.635355,2517.635356,2517.635357,2517.635358,2517.635359,
   **   ~~~   ** Supply-to-demand interface deck 1 energy check value iteration history trace: 1391.342299,1391.342300,1391.342300,1391.342301,1391.342302,1391.342302,1391.342303,1391.342303,1391.342304,1391.342305,
   ** Warning ** SimHVAC: Maximum iterations (20) exceeded for all HVAC loops, at ANNUAL, 01/17 11:30 - 11:45
   **   ~~~   ** The solution for one or more of the Air Loop HVAC systems did not appear to converge
   **   ~~~   ** Air System Named = CENTRAL SYSTEM did not converge for mass flow rate
   **   ~~~   ** Check values should be zero. Most Recent values listed first.
   **   ~~~   ** Demand-to-Supply interface mass flow rate check value iteration history trace: 6.088664E-002,6.088664E-002,6.088664E-002,6.088664E-002,6.088664E-002,6.088664E-002,6.088664E-002,6.088664E-002,6.088664E-002,6.088664E-002,
   **   ~~~   ** Supply-to-demand interface deck 1 mass flow rate check value iteration history trace: 6.088664E-002,6.088664E-002,6.088664E-002,6.088664E-002,6.088664E-002,6.088664E-002,6.088664E-002,6.088664E-002,6.088664E-002,6.088664E-002,
   **   ~~~   ** Air System Named = CENTRAL SYSTEM did not converge for energy
   **   ~~~   ** Check values should be zero. Most Recent values listed first.
   **   ~~~   ** Demand-to-Supply interface energy check value iteration history trace: 1200.883177,1200.883177,1200.883177,1200.883177,1200.883177,1200.883177,1200.883177,1200.883177,1200.883177,1200.883177,
   **   ~~~   ** Supply-to-demand interface deck 1 energy check value iteration history trace: 2124.691020,2124.691020,2124.691020,2124.691020,2124.691020,2124.691020,2124.691020,2124.691020,2124.691020,2124.691020,
   ** Warning ** SimHVAC: Maximum iterations (20) exceeded for all HVAC loops, at ANNUAL, 01/19 10:17 - 10:19
   **   ~~~   ** The solution for one or more of the Air Loop HVAC systems did not appear to converge
   **   ~~~   ** Air System Named = CENTRAL SYSTEM did not converge for mass flow rate
   **   ~~~   ** Check values should be zero. Most Recent values listed first.
   **   ~~~   ** Demand-to-Supply interface mass flow rate check value iteration history trace: 8.008456E-002,8.008456E-002,8.008456E-002,8.008456E-002,8.008456E-002,8.008456E-002,8.008456E-002,8.008456E-002,8.008456E-002,8.008456E-002,
   **   ~~~   ** Supply-to-demand interface deck 1 mass flow rate check value iteration history trace: 8.008456E-002,8.008456E-002,8.008456E-002,8.008456E-002,8.008456E-002,8.008456E-002,8.008456E-002,8.008456E-002,8.008456E-002,8.008456E-002,
   **   ~~~   ** Air System Named = CENTRAL SYSTEM did not converge for energy
   **   ~~~   ** Check values should be zero. Most Recent values listed first.
   **   ~~~   ** Demand-to-Supply interface energy check value iteration history trace: 1587.095674,1587.095674,1587.095674,1587.095674,1587.095674,1587.095674,1587.095674,1587.095673,1587.095673,1587.095673,
   **   ~~~   ** Supply-to-demand interface deck 1 energy check value iteration history trace: 2709.193831,2709.193831,2709.193831,2709.193830,2709.193830,2709.193830,2709.193830,2709.193830,2709.193830,2709.193830,
   ** Warning ** SimHVAC: Maximum iterations (20) exceeded for all HVAC loops, at ANNUAL, 01/29 10:15 - 10:30
   **   ~~~   ** The solution for one or more of the Air Loop HVAC systems did not appear to converge
   **   ~~~   ** Air System Named = CENTRAL SYSTEM did not converge for mass flow rate
   **   ~~~   ** Check values should be zero. Most Recent values listed first.
   **   ~~~   ** Demand-to-Supply interface mass flow rate check value iteration history trace: 4.015184E-002,4.015184E-002,4.015184E-002,4.015184E-002,4.015184E-002,4.015184E-002,4.015184E-002,4.015184E-002,4.015184E-002,4.015184E-002,
   **   ~~~   ** Supply-to-demand interface deck 1 mass flow rate check value iteration history trace: 4.015184E-002,4.015184E-002,4.015184E-002,4.015184E-002,4.015184E-002,4.015184E-002,4.015184E-002,4.015184E-002,4.015184E-002,4.015184E-002,
   **   ~~~   ** Air System Named = CENTRAL SYSTEM did not converge for energy
   **   ~~~   ** Check values should be zero. Most Recent values listed first.
   **   ~~~   ** Demand-to-Supply interface energy check value iteration history trace: 795.679835,795.679835,795.679835,795.679835,795.679835,795.679835,795.679835,795.679835,795.679835,795.679835,
   **   ~~~   ** Supply-to-demand interface deck 1 energy check value iteration history trace: 1420.455000,1420.455000,1420.455000,1420.455000,1420.455000,1420.454999,1420.454999,1420.454999,1420.454999,1420.454999,
   ** Warning ** SimHVAC: Maximum iterations (20) exceeded for all HVAC loops, at ANNUAL, 02/07 11:09 - 11:11
   **   ~~~   ** The solution for one or more of the Air Loop HVAC systems did not appear to converge
   **   ~~~   ** Air System Named = CENTRAL SYSTEM did not converge for mass flow rate
   **   ~~~   ** Check values should be zero. Most Recent values listed first.
   **   ~~~   ** Demand-to-Supply interface mass flow rate check value iteration history trace: 6.363217E-002,6.363217E-002,6.363217E-002,6.363217E-002,6.363217E-002,6.363217E-002,6.363217E-002,6.363217E-002,6.363217E-002,6.363217E-002,
   **   ~~~   ** Supply-to-demand interface deck 1 mass flow rate check value iteration history trace: 6.363217E-002,6.363217E-002,6.363217E-002,6.363217E-002,6.363217E-002,6.363217E-002,6.363217E-002,6.363217E-002,6.363217E-002,6.363217E-002,
   **   ~~~   ** Air System Named = CENTRAL SYSTEM did not converge for energy
   **   ~~~   ** Check values should be zero. Most Recent values listed first.
   **   ~~~   ** Demand-to-Supply interface energy check value iteration history trace: 1254.899402,1254.899402,1254.899402,1254.899402,1254.899402,1254.899402,1254.899402,1254.899402,1254.899402,1254.899402,
   **   ~~~   ** Supply-to-demand interface deck 1 energy check value iteration history trace: 2254.794486,2254.794486,2254.794486,2254.794486,2254.794486,2254.794486,2254.794486,2254.794486,2254.794486,2254.794486,
   ** Warning ** SimHVAC: Maximum iterations (20) exceeded for all HVAC loops, at ANNUAL, 02/18 11:50 - 11:55
   **   ~~~   ** The solution for one or more of the Air Loop HVAC systems did not appear to converge
   **   ~~~   ** Air System Named = CENTRAL SYSTEM did not converge for mass flow rate
   **   ~~~   ** Check values should be zero. Most Recent values listed first.
   **   ~~~   ** Demand-to-Supply interface mass flow rate check value iteration history trace: 5.979158E-002,5.979158E-002,5.979158E-002,5.979158E-002,5.979158E-002,5.979158E-002,5.979158E-002,5.979158E-002,5.979158E-002,5.979158E-002,
   **   ~~~   ** Supply-to-demand interface deck 1 mass flow rate check value iteration history trace: 5.979158E-002,5.979158E-002,5.979158E-002,5.979158E-002,5.979158E-002,5.979158E-002,5.979158E-002,5.979158E-002,5.979158E-002,5.979158E-002,
   **   ~~~   ** Air System Named = CENTRAL SYSTEM did not converge for energy
   **   ~~~   ** Check values should be zero. Most Recent values listed first.
   **   ~~~   ** Demand-to-Supply interface energy check value iteration history trace: 1176.776226,1176.776226,1176.776226,1176.776226,1176.776226,1176.776226,1176.776226,1176.776226,1176.776226,1176.776225,
   **   ~~~   ** Supply-to-demand interface deck 1 energy check value iteration history trace: 2176.288598,2176.288598,2176.288598,2176.288598,2176.288598,2176.288597,2176.288597,2176.288597,2176.288597,2176.288597,
   ** Warning ** SimHVAC: Maximum iterations (20) exceeded for all HVAC loops, at ANNUAL, 03/05 13:45 - 14:00
   **   ~~~   ** The solution for one or more of the Air Loop HVAC systems did not appear to converge
   **   ~~~   ** Air System Named = CENTRAL SYSTEM did not converge for mass flow rate
   **   ~~~   ** Check values should be zero. Most Recent values listed first.
   **   ~~~   ** Demand-to-Supply interface mass flow rate check value iteration history trace: 5.222256E-002,5.222256E-002,5.222256E-002,5.222256E-002,5.222256E-002,5.222256E-002,5.222256E-002,5.222256E-002,5.222256E-002,5.222256E-002,
   **   ~~~   ** Supply-to-demand interface deck 1 mass flow rate check value iteration history trace: 5.222256E-002,5.222256E-002,5.222256E-002,5.222256E-002,5.222256E-002,5.222256E-002,5.222256E-002,5.222256E-002,5.222256E-002,5.222256E-002,
   **   ~~~   ** Air System Named = CENTRAL SYSTEM did not converge for energy
   **   ~~~   ** Check values should be zero. Most Recent values listed first.
   **   ~~~   ** Demand-to-Supply interface energy check value iteration history trace: 1033.817539,1033.817539,1033.817539,1033.817539,1033.817539,1033.817539,1033.817539,1033.817539,1033.817539,1033.817539,
   **   ~~~   ** Supply-to-demand interface deck 1 energy check value iteration history trace: 1861.015765,1861.015765,1861.015765,1861.015765,1861.015765,1861.015764,1861.015764,1861.015764,1861.015764,1861.015764,
   ** Warning ** SimHVAC: Maximum iterations (20) exceeded for all HVAC loops, at ANNUAL, 03/08 11:15 - 11:30
   **   ~~~   ** The solution for one or more of the Air Loop HVAC systems did not appear to converge
   **   ~~~   ** Air System Named = CENTRAL SYSTEM did not converge for mass flow rate
   **   ~~~   ** Check values should be zero. Most Recent values listed first.
   **   ~~~   ** Demand-to-Supply interface mass flow rate check value iteration history trace: 3.695665E-002,3.695665E-002,3.695665E-002,3.695665E-002,3.695665E-002,3.695665E-002,3.695665E-002,3.695665E-002,3.695665E-002,3.695665E-002,
   **   ~~~   ** Supply-to-demand interface deck 1 mass flow rate check value iteration history trace: 3.695665E-002,3.695665E-002,3.695665E-002,3.695665E-002,3.695665E-002,3.695665E-002,3.695665E-002,3.695665E-002,3.695665E-002,3.695665E-002,
   **   ~~~   ** Air System Named = CENTRAL SYSTEM did not converge for energy
   **   ~~~   ** Check values should be zero. Most Recent values listed first.
   **   ~~~   ** Demand-to-Supply interface energy check value iteration history trace: 729.469375,729.469375,729.469375,729.469375,729.469375,729.469375,729.469375,729.469375,729.469375,729.469374,
   **   ~~~   ** Supply-to-demand interface deck 1 energy check value iteration history trace: 1311.855144,1311.855144,1311.855144,1311.855144,1311.855144,1311.855143,1311.855143,1311.855143,1311.855143,1311.855143,
   ** Warning ** SimHVAC: Maximum iterations (20) exceeded for all HVAC loops, at ANNUAL, 03/09 03:00 - 03:08
   **   ~~~   ** The solution for one or more of the Air Loop HVAC systems did not appear to converge
   **   ~~~   ** Air System Named = CENTRAL SYSTEM did not converge for mass flow rate
   **   ~~~   ** Check values should be zero. Most Recent values listed first.
   **   ~~~   ** Demand-to-Supply interface mass flow rate check value iteration history trace: 5.358318E-002,5.358318E-002,5.358318E-002,5.358318E-002,5.358318E-002,5.358318E-002,5.358318E-002,5.358318E-002,5.358318E-002,5.358318E-002,
   **   ~~~   ** Supply-to-demand interface deck 1 mass flow rate check value iteration history trace: 5.358318E-002,5.358318E-002,5.358318E-002,5.358318E-002,5.358318E-002,5.358318E-002,5.358318E-002,5.358318E-002,5.358318E-002,5.358318E-002,
   **   ~~~   ** Air System Named = CENTRAL SYSTEM did not converge for energy
   **   ~~~   ** Check values should be zero. Most Recent values listed first.
   **   ~~~   ** Demand-to-Supply interface energy check value iteration history trace: 1002.027984,1002.027984,1002.027984,1002.027984,1002.027984,1002.027984,1002.027984,1002.027984,1002.027984,1002.027984,
   **   ~~~   ** Supply-to-demand interface deck 1 energy check value iteration history trace: 1761.985894,1761.985894,1761.985894,1761.985894,1761.985894,1761.985894,1761.985894,1761.985894,1761.985894,1761.985894,
   ** Warning ** Temperature out of range [-100. to 200.] (PsyPsatFnTemp)
   **   ~~~   **  Routine=PsyTwbFnTdbWPb, Environment=ANNUAL, at Simulation time=03/28 20:15 - 20:19
   **   ~~~   **  Input Temperature=-320.55
   ** Warning ** SimHVAC: Maximum iterations (20) exceeded for all HVAC loops, at ANNUAL, 03/29 11:15 - 11:30
   **   ~~~   ** The solution for one or more of the Air Loop HVAC systems did not appear to converge
   **   ~~~   ** Air System Named = CENTRAL SYSTEM did not converge for mass flow rate
   **   ~~~   ** Check values should be zero. Most Recent values listed first.
   **   ~~~   ** Demand-to-Supply interface mass flow rate check value iteration history trace: 5.334027E-002,5.334027E-002,5.334027E-002,5.334027E-002,5.334027E-002,5.334027E-002,5.334027E-002,5.334027E-002,5.334027E-002,5.334027E-002,
   **   ~~~   ** Supply-to-demand interface deck 1 mass flow rate check value iteration history trace: 5.334027E-002,5.334027E-002,5.334027E-002,5.334027E-002,5.334027E-002,5.334027E-002,5.334027E-002,5.334027E-002,5.334027E-002,5.334027E-002,
   **   ~~~   ** Air System Named = CENTRAL SYSTEM did not converge for energy
   **   ~~~   ** Check values should be zero. Most Recent values listed first.
   **   ~~~   ** Demand-to-Supply interface energy check value iteration history trace: 1057.050307,1057.050307,1057.050307,1057.050307,1057.050307,1057.050307,1057.050307,1057.050307,1057.050307,1057.050307,
   **   ~~~   ** Supply-to-demand interface deck 1 energy check value iteration history trace: 1826.222641,1826.222641,1826.222641,1826.222641,1826.222641,1826.222641,1826.222641,1826.222641,1826.222641,1826.222641,
   ** Warning ** SimHVAC: Maximum iterations (20) exceeded for all HVAC loops, at ANNUAL, 03/29 11:30 - 11:45
   **   ~~~   ** The solution for one or more of the Air Loop HVAC systems did not appear to converge
   **   ~~~   ** Air System Named = CENTRAL SYSTEM did not converge for mass flow rate
   **   ~~~   ** Check values should be zero. Most Recent values listed first.
   **   ~~~   ** Demand-to-Supply interface mass flow rate check value iteration history trace: 5.119314E-002,5.119314E-002,5.119314E-002,5.119314E-002,5.119314E-002,5.119314E-002,5.119314E-002,5.119314E-002,5.119314E-002,5.119314E-002,
   **   ~~~   ** Supply-to-demand interface deck 1 mass flow rate check value iteration history trace: 5.119314E-002,5.119314E-002,5.119314E-002,5.119314E-002,5.119314E-002,5.119314E-002,5.119314E-002,5.119314E-002,5.119314E-002,5.119314E-002,
   **   ~~~   ** Air System Named = CENTRAL SYSTEM did not converge for energy
   **   ~~~   ** Check values should be zero. Most Recent values listed first.
   **   ~~~   ** Demand-to-Supply interface energy check value iteration history trace: 1014.276443,1014.276443,1014.276442,1014.276442,1014.276442,1014.276442,1014.276442,1014.276442,1014.276442,1014.276442,
   **   ~~~   ** Supply-to-demand interface deck 1 energy check value iteration history trace: 1755.164104,1755.164104,1755.164104,1755.164104,1755.164104,1755.164104,1755.164103,1755.164103,1755.164103,1755.164103,
   ** Warning ** SimHVAC: Maximum iterations (20) exceeded for all HVAC loops, at ANNUAL, 04/23 07:23 - 07:26
   **   ~~~   ** The solution for one or more of the Air Loop HVAC systems did not appear to converge
   **   ~~~   ** Air System Named = CENTRAL SYSTEM did not converge for mass flow rate
   **   ~~~   ** Check values should be zero. Most Recent values listed first.
   **   ~~~   ** Demand-to-Supply interface mass flow rate check value iteration history trace: 5.928177E-002,5.928177E-002,5.928177E-002,5.928177E-002,5.928177E-002,5.928177E-002,5.928177E-002,5.928177E-002,5.928177E-002,5.928177E-002,
   **   ~~~   ** Supply-to-demand interface deck 1 mass flow rate check value iteration history trace: 5.928177E-002,5.928177E-002,5.928177E-002,5.928177E-002,5.928177E-002,5.928177E-002,5.928177E-002,5.928177E-002,5.928177E-002,5.928177E-002,
   **   ~~~   ** Air System Named = CENTRAL SYSTEM did not converge for energy
   **   ~~~   ** Check values should be zero. Most Recent values listed first.
   **   ~~~   ** Demand-to-Supply interface energy check value iteration history trace: 1175.094790,1175.094790,1175.094790,1175.094790,1175.094790,1175.094790,1175.094790,1175.094790,1175.094790,1175.094789,
   **   ~~~   ** Supply-to-demand interface deck 1 energy check value iteration history trace: 2036.196254,2036.196254,2036.196254,2036.196254,2036.196254,2036.196254,2036.196254,2036.196254,2036.196253,2036.196253,
   ** Warning ** SimHVAC: Maximum iterations (20) exceeded for all HVAC loops, at ANNUAL, 05/03 08:47 - 08:50
   **   ~~~   ** The solution for one or more of the Air Loop HVAC systems did not appear to converge
   **   ~~~   ** Air System Named = CENTRAL SYSTEM did not converge for mass flow rate
   **   ~~~   ** Check values should be zero. Most Recent values listed first.
   **   ~~~   ** Demand-to-Supply interface mass flow rate check value iteration history trace: 0.101300,0.101300,0.101300,0.101300,0.101300,0.101300,0.101300,0.101300,0.101300,0.101300,
   **   ~~~   ** Supply-to-demand interface deck 1 mass flow rate check value iteration history trace: 0.101300,0.101300,0.101300,0.101300,0.101300,0.101300,0.101300,0.101300,0.101300,0.101300,
   **   ~~~   ** Air System Named = CENTRAL SYSTEM did not converge for energy
   **   ~~~   ** Check values should be zero. Most Recent values listed first.
   **   ~~~   ** Demand-to-Supply interface energy check value iteration history trace: 2387.988586,2387.988586,2387.988587,2387.988588,2387.988588,2387.988589,2387.988589,2387.988590,2387.988591,2387.988591,
   **   ~~~   ** Supply-to-demand interface deck 1 energy check value iteration history trace: 1223.281442,1223.281442,1223.281442,1223.281443,1223.281443,1223.281443,1223.281444,1223.281444,1223.281444,1223.281445,
   ** Warning ** SimHVAC: Maximum iterations (20) exceeded for all HVAC loops, at ANNUAL, 05/03 09:06 - 09:09
   **   ~~~   ** The solution for one or more of the Air Loop HVAC systems did not appear to converge
   **   ~~~   ** Air System Named = CENTRAL SYSTEM did not converge for mass flow rate
   **   ~~~   ** Check values should be zero. Most Recent values listed first.
   **   ~~~   ** Demand-to-Supply interface mass flow rate check value iteration history trace: 0.131287,0.131287,0.131287,0.131287,0.131287,0.131287,0.131287,0.131287,0.131287,0.131287,
   **   ~~~   ** Supply-to-demand interface deck 1 mass flow rate check value iteration history trace: 0.131287,0.131287,0.131287,0.131287,0.131287,0.131287,0.131287,0.131287,0.131287,0.131287,
   **   ~~~   ** Air System Named = CENTRAL SYSTEM did not converge for energy
   **   ~~~   ** Check values should be zero. Most Recent values listed first.
   **   ~~~   ** Demand-to-Supply interface energy check value iteration history trace: 3099.925151,3099.925152,3099.925152,3099.925153,3099.925153,3099.925154,3099.925154,3099.925155,3099.925155,3099.925156,
   **   ~~~   ** Supply-to-demand interface deck 1 energy check value iteration history trace: 1582.450507,1582.450507,1582.450507,1582.450508,1582.450508,1582.450508,1582.450508,1582.450509,1582.450509,1582.450509,
   ************* Simulation Error Summary *************
   ** Warning ** The following Report Variables were requested but not generated -- check.rdd file
   **   ~~~   ** Either the IDF did not contain these elements, the variable name is misspelled,
   **   ~~~   ** or the requested variable is an advanced output which requires Output : Diagnostics, DisplayAdvancedReportVariables;
   ************* Key=*, VarName=BASEBOARD TOTAL HEATING ENERGY, Frequency=
   ************* Key=*, VarName=WATER HEATER NATURALGAS ENERGY, Frequency=
   ************* Key=*, VarName=COOLING COIL TOTAL HEATING ENERGY, Frequency=
   ************* There are 34 unused schedules in input.
   ************* There are 388 unused week schedules in input.
   ************* There are 397 unused day schedules in input.
   ************* Use Output:Diagnostics,DisplayUnusedSchedules; to see them.
   *************
   ************* ===== Recurring Error Summary =====
   ************* The following recurring error messages occurred.
   *************
   *************  ** Warning ** "TOTAL HOT WATER LOAD" - Target water temperature should be less than or equal to the hot water temperature error continues...
   *************  **   ~~~   **   This error occurred 110423 total times;
   *************  **   ~~~   **   during Warmup 0 times;
   *************  **   ~~~   **   during Sizing 0 times.
   *************  **   ~~~   **   Max=9.65224  Min=1.091366E-003
   *************
   *************  ** Warning ** Temperature out of range [-100. to 200.] (PsyPsatFnTemp)
   *************  **   ~~~   **   This error occurred 1 total times;
   *************  **   ~~~   **   during Warmup 0 times;
   *************  **   ~~~   **   during Sizing 0 times.
   *************  **   ~~~   **   Max=-320.55658 C  Min=-320.55658 C
   *************
   *************  ** Warning ** SimHVAC: Exceeding Maximum iterations for all HVAC loops, during ANNUAL continues
   *************  **   ~~~   **   This error occurred 11 total times;
   *************  **   ~~~   **   during Warmup 0 times;
   *************  **   ~~~   **   during Sizing 0 times.
   *************
   *************
   ************* ===== Final Error Summary =====
   ************* The following error categories occurred.  Consider correcting or noting.
   ************* Nominally Unused Constructions
   ************* ..The nominally unused constructions warning is provided to alert you to potential conditions that can cause
   ************* ..extra time during simulation. Each construction is calculated by the algorithm indicated in the HeatBalanceAlgorithm
   ************* ..object. You may remove the constructions indicated (when you use the DisplayExtraWarnings option).
   *************
   ************* EnergyPlus Warmup Error Summary. During Warmup: 1 Warning; 0 Severe Errors.
   ************* EnergyPlus Sizing Error Summary. During Sizing: 4 Warning; 0 Severe Errors.
   ************* EnergyPlus Completed Successfully-- 110467 Warning; 0 Severe Errors; Elapsed Time=00hr 01min 38.54sec
