Program Version,EnergyPlus, Version 22.2.0-c249759bad, YMD=2023.09.01 17:30,
   ************* Beginning Zone Sizing Calculations
   ** Warning ** ProcessScheduleInput: Schedule:Constant="ALWAYS ON DISCRETE", Schedule Type Limits Name="ONOFF" not found -- will not be validated
   ** Warning ** Foundation:Kiva="KIVA FOUNDATION", no Interior Horizontal Insulation Material Name defined
   **   ~~~   ** Interior Horizontal Insulation Depth will not be used.
   ** Warning ** CheckUsedConstructions: There are 15 nominally unused constructions in input.
   **   ~~~   ** Each Unused construction is shown.
   ************* Construction=INTERIOR FLOOR
   ************* Construction=INTERIOR WINDOW
   ************* Construction=EXTERIOR DOOR
   ************* Construction=INTERIOR DOOR
   ************* Construction=GABLE CONSTRUCTION
   ************* Construction=CRAWL_FLOOR
   ************* Construction=INSULATED PIPE
   ************* Construction=PLAIN PIPE
   ************* Construction=TDD PIPE
   ************* Construction=TDD DOME
   ************* Construction=TDD DIFFUSER
   ************* Construction=CRAWL WALL
   ************* Construction=CEILING-FLOOR-LAYER
   ************* Construction=SLAB CONSTRUCTION W FULL R10 INSULATION
   ************* Construction=SLAB CONSTRUCTION W FULL R5 INSULATION
   ** Warning ** GetDXCoils: Coil:Heating:DX:SingleSpeed="DX_HEATING_COIL" curve values
   **   ~~~   ** ... Defrost Energy Input Ratio Function of Temperature Curve Name = DEFROSTEIR output is not equal to 1.0 (+ or - 10%) at rated conditions.
   **   ~~~   ** ... Curve output at rated conditions = 0.152
   ************* Beginning System Sizing Calculations
   ************* Beginning Plant Sizing Calculations
   ** Warning ** SizeDXCoil Coil:Cooling:DX:SingleSpeed DX_COOLING_COIL
   **   ~~~   ** ...Gross Rated Total Cooling Capacity [W] will be limited by the maximum rated volume flow per rated total capacity ratio.
   **   ~~~   ** ...DX coil volume flow rate ( m3/s ) = 0.363638
   **   ~~~   ** ...Requested capacity ( W ) = 5649.014
   **   ~~~   ** ...Requested flow/capacity ratio ( m3/s/W ) = 6.437E-005
   **   ~~~   ** ...Maximum flow/capacity ratio ( m3/s/W ) = 6.041E-005
   **   ~~~   ** ...Adjusted capacity ( W ) = 6019.512
   ** Warning ** Coil:WaterHeating:AirToWaterHeatPump:Wrapped "HEAT PUMP WATER HEATER EVAPORATOR": Rated air volume flow rate per watt of rated total water heating capacity is out of range
   **   ~~~   ** Min Rated Vol Flow Per Watt=[4.027E-005], Rated Vol Flow Per Watt=[1.510E-004], Max Rated Vol Flow Per Watt=[8.056E-005]. See Input-Output Reference Manual for valid range.
   ************* SizeFan: : Potential issue with equipment sizing for Fan:OnOff HEAT PUMP WATER HEATER FAN
   **   ~~~   ** User-Specified Maximum Flow Rate [m3/s] = 0.22653
   **   ~~~   ** differs from Design Size Maximum Flow Rate [m3/s] = 7.55250E-002
   **   ~~~   ** This may, or may not, indicate mismatched component sizes.
   **   ~~~   ** Verify that the value entered is intended and is consistent with other components.
   ** Warning ** Water heater = WATER HEATER TANK:  Recovery Efficiency and Energy Factor could not be calculated during the test for standard ratings
   **   ~~~   ** Setpoint was never recovered and/or heater never turned on
   ** Warning ** Check input. Pump nominal power or motor efficiency is set to 0, for pump=MAINS PRESSURE
   ** Warning ** Output:Meter: invalid Key Name="ELECTRIC_RANGE:INTERIOREQUIPMENT:ELECTRICITY" - not found.
   ** Warning ** Output:Meter: invalid Key Name="ELECTRIC_DRYER:INTERIOREQUIPMENT:ELECTRICITY" - not found.
   ** Warning ** Output:Meter: invalid Key Name="HEATRECOVERY:ELECTRICITY" - not found.
   ** Warning ** Output:Meter: invalid Key Name="HEATING:NATURALGAS" - not found.
   ** Warning ** Output:Meter: invalid Key Name="WATERSYSTEMS:NATURALGAS" - not found.
   ** Warning ** Output:Meter: invalid Key Name="PROPANE:FACILITY" - not found.
   ** Warning ** Output:Meter: invalid Key Name="HEATING:PROPANE" - not found.
   ************* Testing Individual Branch Integrity
   ************* All Branches passed integrity testing
   ************* Testing Individual Supply Air Path Integrity
   ************* All Supply Air Paths passed integrity testing
   ************* Testing Individual Return Air Path Integrity
   ************* All Return Air Paths passed integrity testing
   ************* No node connection errors were found.
   ************* Beginning Simulation
   ** Warning ** AirflowNetwork::Solver::validate_distribution: Heat pump water heater is simulated along with an AirflowNetwork but is not included in the AirflowNetwork.
   ** Warning ** CalcEquipmentFlowRates: "TOTAL HOT WATER LOAD" - Target water temperature is greater than the hot water temperature by (0.74 C)
   **   ~~~   **  Environment=EXTREME_WINTER, at Simulation time=01/18 06:00 - 06:15
   **   ~~~   ** ...target water temperature     = 53.33 C
   **   ~~~   ** ...hot water temperature        = 52.60 C
   **   ~~~   ** ...Target water temperature should be less than or equal to the hot water temperature. Verify temperature setpoints and schedules.
   ** Warning ** SimHVAC: Maximum iterations (20) exceeded for all HVAC loops, at ANNUAL, 01/08 22:15 - 22:30
   **   ~~~   ** The solution for one or more of the Air Loop HVAC systems did not appear to converge
   **   ~~~   ** Air System Named = CENTRAL SYSTEM did not converge for mass flow rate
   **   ~~~   ** Check values should be zero. Most Recent values listed first.
   **   ~~~   ** Demand-to-Supply interface mass flow rate check value iteration history trace: 9.067027E-002,9.067027E-002,9.067027E-002,9.067027E-002,9.067027E-002,9.067027E-002,9.067027E-002,9.067027E-002,9.067027E-002,9.067027E-002,
   **   ~~~   ** Supply-to-demand interface deck 1 mass flow rate check value iteration history trace: 9.067027E-002,9.067027E-002,9.067027E-002,9.067027E-002,9.067027E-002,9.067027E-002,9.067027E-002,9.067027E-002,9.067027E-002,9.067027E-002,
   **   ~~~   ** Air System Named = CENTRAL SYSTEM did not converge for energy
   **   ~~~   ** Check values should be zero. Most Recent values listed first.
   **   ~~~   ** Demand-to-Supply interface energy check value iteration history trace: 1687.482635,1687.482635,1687.482635,1687.482635,1687.482634,1687.482634,1687.482634,1687.482634,1687.482634,1687.482634,
   **   ~~~   ** Supply-to-demand interface deck 1 energy check value iteration history trace: 2550.528265,2550.528265,2550.528265,2550.528265,2550.528264,2550.528264,2550.528264,2550.528264,2550.528264,2550.528264,
   ** Warning ** SimHVAC: Maximum iterations (20) exceeded for all HVAC loops, at ANNUAL, 02/11 20:15 - 20:20
   **   ~~~   ** The solution for one or more of the Air Loop HVAC systems did not appear to converge
   **   ~~~   ** Air System Named = CENTRAL SYSTEM did not converge for mass flow rate
   **   ~~~   ** Check values should be zero. Most Recent values listed first.
   **   ~~~   ** Demand-to-Supply interface mass flow rate check value iteration history trace: 0.101139,0.101139,0.101139,0.101139,0.101139,0.101139,0.101139,0.101139,0.101139,0.101139,
   **   ~~~   ** Supply-to-demand interface deck 1 mass flow rate check value iteration history trace: 0.101139,0.101139,0.101139,0.101139,0.101139,0.101139,0.101139,0.101139,0.101139,0.101139,
   **   ~~~   ** Air System Named = CENTRAL SYSTEM did not converge for energy
   **   ~~~   ** Check values should be zero. Most Recent values listed first.
   **   ~~~   ** Demand-to-Supply interface energy check value iteration history trace: 2005.589319,2005.589319,2005.589319,2005.589318,2005.589318,2005.589318,2005.589318,2005.589318,2005.589318,2005.589318,
   **   ~~~   ** Supply-to-demand interface deck 1 energy check value iteration history trace: 2985.289810,2985.289810,2985.289809,2985.289809,2985.289809,2985.289809,2985.289809,2985.289809,2985.289808,2985.289808,
   ** Warning ** SimHVAC: Maximum iterations (20) exceeded for all HVAC loops, at ANNUAL, 02/24 16:30 - 16:45
   **   ~~~   ** The solution for one or more of the Air Loop HVAC systems did not appear to converge
   **   ~~~   ** Air System Named = CENTRAL SYSTEM did not converge for mass flow rate
   **   ~~~   ** Check values should be zero. Most Recent values listed first.
   **   ~~~   ** Demand-to-Supply interface mass flow rate check value iteration history trace: 8.826552E-002,8.826552E-002,8.826552E-002,8.826552E-002,8.826552E-002,8.826552E-002,8.826552E-002,8.826552E-002,8.826552E-002,8.826552E-002,
   **   ~~~   ** Supply-to-demand interface deck 1 mass flow rate check value iteration history trace: 8.826552E-002,8.826552E-002,8.826552E-002,8.826552E-002,8.826552E-002,8.826552E-002,8.826552E-002,8.826552E-002,8.826552E-002,8.826552E-002,
   **   ~~~   ** Air System Named = CENTRAL SYSTEM did not converge for energy
   **   ~~~   ** Check values should be zero. Most Recent values listed first.
   **   ~~~   ** Demand-to-Supply interface energy check value iteration history trace: 1748.626219,1748.626219,1748.626219,1748.626218,1748.626218,1748.626218,1748.626218,1748.626218,1748.626218,1748.626218,
   **   ~~~   ** Supply-to-demand interface deck 1 energy check value iteration history trace: 2603.917789,2603.917789,2603.917788,2603.917788,2603.917788,2603.917788,2603.917788,2603.917788,2603.917787,2603.917787,
   ** Warning ** SimHVAC: Maximum iterations (20) exceeded for all HVAC loops, at ANNUAL, 02/25 18:21 - 18:24
   **   ~~~   ** The solution for one or more of the Air Loop HVAC systems did not appear to converge
   **   ~~~   ** Air System Named = CENTRAL SYSTEM did not converge for mass flow rate
   **   ~~~   ** Check values should be zero. Most Recent values listed first.
   **   ~~~   ** Demand-to-Supply interface mass flow rate check value iteration history trace: 0.100483,0.100483,0.100483,0.100483,0.100483,0.100483,0.100483,0.100483,0.100483,0.100483,
   **   ~~~   ** Supply-to-demand interface deck 1 mass flow rate check value iteration history trace: 0.100483,0.100483,0.100483,0.100483,0.100483,0.100483,0.100483,0.100483,0.100483,0.100483,
   **   ~~~   ** Air System Named = CENTRAL SYSTEM did not converge for energy
   **   ~~~   ** Check values should be zero. Most Recent values listed first.
   **   ~~~   ** Demand-to-Supply interface energy check value iteration history trace: 1990.943486,1990.943486,1990.943486,1990.943486,1990.943486,1990.943486,1990.943485,1990.943485,1990.943485,1990.943485,
   **   ~~~   ** Supply-to-demand interface deck 1 energy check value iteration history trace: 2957.043007,2957.043007,2957.043006,2957.043006,2957.043006,2957.043006,2957.043006,2957.043005,2957.043005,2957.043005,
   ** Warning ** SimHVAC: Maximum iterations (20) exceeded for all HVAC loops, at ANNUAL, 03/05 22:45 - 23:00
   **   ~~~   ** The solution for one or more of the Air Loop HVAC systems did not appear to converge
   **   ~~~   ** Air System Named = CENTRAL SYSTEM did not converge for mass flow rate
   **   ~~~   ** Check values should be zero. Most Recent values listed first.
   **   ~~~   ** Demand-to-Supply interface mass flow rate check value iteration history trace: 6.265408E-002,6.265408E-002,6.265408E-002,6.265408E-002,6.265408E-002,6.265408E-002,6.265408E-002,6.265408E-002,6.265408E-002,6.265408E-002,
   **   ~~~   ** Supply-to-demand interface deck 1 mass flow rate check value iteration history trace: 6.265408E-002,6.265408E-002,6.265408E-002,6.265408E-002,6.265408E-002,6.265408E-002,6.265408E-002,6.265408E-002,6.265408E-002,6.265408E-002,
   **   ~~~   ** Air System Named = CENTRAL SYSTEM did not converge for energy
   **   ~~~   ** Check values should be zero. Most Recent values listed first.
   **   ~~~   ** Demand-to-Supply interface energy check value iteration history trace: 1172.659672,1172.659672,1172.659672,1172.659672,1172.659671,1172.659671,1172.659671,1172.659671,1172.659671,1172.659671,
   **   ~~~   ** Supply-to-demand interface deck 1 energy check value iteration history trace: 2040.070848,2040.070848,2040.070847,2040.070847,2040.070847,2040.070847,2040.070847,2040.070847,2040.070847,2040.070847,
   ** Warning ** SimHVAC: Maximum iterations (20) exceeded for all HVAC loops, at ANNUAL, 03/15 21:00 - 21:15
   **   ~~~   ** The solution for one or more of the Air Loop HVAC systems did not appear to converge
   **   ~~~   ** Air System Named = CENTRAL SYSTEM did not converge for mass flow rate
   **   ~~~   ** Check values should be zero. Most Recent values listed first.
   **   ~~~   ** Demand-to-Supply interface mass flow rate check value iteration history trace: 0.102567,0.102567,0.102567,0.102567,0.102567,0.102567,0.102567,0.102567,0.102567,0.102567,
   **   ~~~   ** Supply-to-demand interface deck 1 mass flow rate check value iteration history trace: 0.102567,0.102567,0.102567,0.102567,0.102567,0.102567,0.102567,0.102567,0.102567,0.102567,
   **   ~~~   ** Air System Named = CENTRAL SYSTEM did not converge for energy
   **   ~~~   ** Check values should be zero. Most Recent values listed first.
   **   ~~~   ** Demand-to-Supply interface energy check value iteration history trace: 2026.479991,2026.479991,2026.479991,2026.479990,2026.479990,2026.479990,2026.479990,2026.479990,2026.479990,2026.479990,
   **   ~~~   ** Supply-to-demand interface deck 1 energy check value iteration history trace: 3005.346864,3005.346864,3005.346864,3005.346864,3005.346863,3005.346863,3005.346863,3005.346863,3005.346863,3005.346862,
   ** Warning ** SimHVAC: Maximum iterations (20) exceeded for all HVAC loops, at ANNUAL, 03/20 09:15 - 09:17
   **   ~~~   ** The solution for one or more of the Air Loop HVAC systems did not appear to converge
   **   ~~~   ** Air System Named = CENTRAL SYSTEM did not converge for mass flow rate
   **   ~~~   ** Check values should be zero. Most Recent values listed first.
   **   ~~~   ** Demand-to-Supply interface mass flow rate check value iteration history trace: 7.618455E-002,7.618455E-002,7.618455E-002,7.618455E-002,7.618455E-002,7.618455E-002,7.618455E-002,7.618455E-002,7.618455E-002,7.618455E-002,
   **   ~~~   ** Supply-to-demand interface deck 1 mass flow rate check value iteration history trace: 7.618455E-002,7.618455E-002,7.618455E-002,7.618455E-002,7.618455E-002,7.618455E-002,7.618455E-002,7.618455E-002,7.618455E-002,7.618455E-002,
   **   ~~~   ** Air System Named = CENTRAL SYSTEM did not converge for energy
   **   ~~~   ** Check values should be zero. Most Recent values listed first.
   **   ~~~   ** Demand-to-Supply interface energy check value iteration history trace: 1509.755062,1509.755062,1509.755062,1509.755062,1509.755062,1509.755062,1509.755062,1509.755061,1509.755061,1509.755061,
   **   ~~~   ** Supply-to-demand interface deck 1 energy check value iteration history trace: 2303.652691,2303.652690,2303.652690,2303.652690,2303.652690,2303.652690,2303.652690,2303.652689,2303.652689,2303.652689,
   ** Warning ** SimHVAC: Maximum iterations (20) exceeded for all HVAC loops, at ANNUAL, 03/23 12:30 - 12:32
   **   ~~~   ** The solution for one or more of the Air Loop HVAC systems did not appear to converge
   **   ~~~   ** Air System Named = CENTRAL SYSTEM did not converge for mass flow rate
   **   ~~~   ** Check values should be zero. Most Recent values listed first.
   **   ~~~   ** Demand-to-Supply interface mass flow rate check value iteration history trace: 8.194929E-002,8.194929E-002,8.194929E-002,8.194929E-002,8.194929E-002,8.194929E-002,8.194929E-002,8.194929E-002,8.194929E-002,8.194929E-002,
   **   ~~~   ** Supply-to-demand interface deck 1 mass flow rate check value iteration history trace: 8.194929E-002,8.194929E-002,8.194929E-002,8.194929E-002,8.194929E-002,8.194929E-002,8.194929E-002,8.194929E-002,8.194929E-002,8.194929E-002,
   **   ~~~   ** Air System Named = CENTRAL SYSTEM did not converge for energy
   **   ~~~   ** Check values should be zero. Most Recent values listed first.
   **   ~~~   ** Demand-to-Supply interface energy check value iteration history trace: 1624.049716,1624.049716,1624.049716,1624.049716,1624.049716,1624.049716,1624.049716,1624.049716,1624.049715,1624.049715,
   **   ~~~   ** Supply-to-demand interface deck 1 energy check value iteration history trace: 2471.663783,2471.663783,2471.663783,2471.663783,2471.663782,2471.663782,2471.663782,2471.663782,2471.663782,2471.663782,
   ** Warning ** SimHVAC: Maximum iterations (20) exceeded for all HVAC loops, at ANNUAL, 03/24 16:30 - 16:45
   **   ~~~   ** The solution for one or more of the Air Loop HVAC systems did not appear to converge
   **   ~~~   ** Air System Named = CENTRAL SYSTEM did not converge for mass flow rate
   **   ~~~   ** Check values should be zero. Most Recent values listed first.
   **   ~~~   ** Demand-to-Supply interface mass flow rate check value iteration history trace: 8.509780E-002,8.509780E-002,8.509780E-002,8.509780E-002,8.509780E-002,8.509780E-002,8.509780E-002,8.509780E-002,8.509780E-002,8.509780E-002,
   **   ~~~   ** Supply-to-demand interface deck 1 mass flow rate check value iteration history trace: 8.509780E-002,8.509780E-002,8.509780E-002,8.509780E-002,8.509780E-002,8.509780E-002,8.509780E-002,8.509780E-002,8.509780E-002,8.509780E-002,
   **   ~~~   ** Air System Named = CENTRAL SYSTEM did not converge for energy
   **   ~~~   ** Check values should be zero. Most Recent values listed first.
   **   ~~~   ** Demand-to-Supply interface energy check value iteration history trace: 1678.741345,1678.741345,1678.741345,1678.741345,1678.741345,1678.741345,1678.741344,1678.741344,1678.741344,1678.741344,
   **   ~~~   ** Supply-to-demand interface deck 1 energy check value iteration history trace: 2601.591410,2601.591410,2601.591410,2601.591410,2601.591410,2601.591409,2601.591409,2601.591409,2601.591409,2601.591409,
   ** Warning ** SimHVAC: Maximum iterations (20) exceeded for all HVAC loops, at ANNUAL, 03/25 19:38 - 19:45
   **   ~~~   ** The solution for one or more of the Air Loop HVAC systems did not appear to converge
   **   ~~~   ** Air System Named = CENTRAL SYSTEM did not converge for mass flow rate
   **   ~~~   ** Check values should be zero. Most Recent values listed first.
   **   ~~~   ** Demand-to-Supply interface mass flow rate check value iteration history trace: 9.656592E-002,9.656592E-002,9.656592E-002,9.656592E-002,9.656592E-002,9.656592E-002,9.656592E-002,9.656592E-002,9.656592E-002,9.656592E-002,
   **   ~~~   ** Supply-to-demand interface deck 1 mass flow rate check value iteration history trace: 9.656592E-002,9.656592E-002,9.656592E-002,9.656592E-002,9.656592E-002,9.656592E-002,9.656592E-002,9.656592E-002,9.656592E-002,9.656592E-002,
   **   ~~~   ** Air System Named = CENTRAL SYSTEM did not converge for energy
   **   ~~~   ** Check values should be zero. Most Recent values listed first.
   **   ~~~   ** Demand-to-Supply interface energy check value iteration history trace: 1913.404076,1913.404076,1913.404076,1913.404076,1913.404076,1913.404076,1913.404076,1913.404075,1913.404075,1913.404075,
   **   ~~~   ** Supply-to-demand interface deck 1 energy check value iteration history trace: 2891.235017,2891.235017,2891.235017,2891.235017,2891.235016,2891.235016,2891.235016,2891.235016,2891.235016,2891.235015,
   ** Warning ** SimHVAC: Maximum iterations (20) exceeded for all HVAC loops, at ANNUAL, 03/27 19:08 - 19:15
   **   ~~~   ** The solution for one or more of the Air Loop HVAC systems did not appear to converge
   **   ~~~   ** Air System Named = CENTRAL SYSTEM did not converge for mass flow rate
   **   ~~~   ** Check values should be zero. Most Recent values listed first.
   **   ~~~   ** Demand-to-Supply interface mass flow rate check value iteration history trace: 3.897548E-002,3.897548E-002,3.897548E-002,3.897548E-002,3.897548E-002,3.897548E-002,3.897548E-002,3.897548E-002,3.897548E-002,3.897548E-002,
   **   ~~~   ** Supply-to-demand interface deck 1 mass flow rate check value iteration history trace: 3.897548E-002,3.897548E-002,3.897548E-002,3.897548E-002,3.897548E-002,3.897548E-002,3.897548E-002,3.897548E-002,3.897548E-002,3.897548E-002,
   **   ~~~   ** Air System Named = CENTRAL SYSTEM did not converge for energy
   **   ~~~   ** Check values should be zero. Most Recent values listed first.
   **   ~~~   ** Demand-to-Supply interface energy check value iteration history trace: 772.084462,772.084462,772.084462,772.084462,772.084462,772.084462,772.084462,772.084462,772.084461,772.084461,
   **   ~~~   ** Supply-to-demand interface deck 1 energy check value iteration history trace: 1167.769559,1167.769559,1167.769559,1167.769559,1167.769559,1167.769559,1167.769559,1167.769558,1167.769558,1167.769558,
   ** Warning ** SimHVAC: Maximum iterations (20) exceeded for all HVAC loops, at ANNUAL, 04/09 08:30 - 08:45
   **   ~~~   ** The solution for one or more of the Air Loop HVAC systems did not appear to converge
   **   ~~~   ** Air System Named = CENTRAL SYSTEM did not converge for mass flow rate
   **   ~~~   ** Check values should be zero. Most Recent values listed first.
   **   ~~~   ** Demand-to-Supply interface mass flow rate check value iteration history trace: 7.383019E-002,7.383019E-002,7.383019E-002,7.383019E-002,7.383019E-002,7.383019E-002,7.383019E-002,7.383019E-002,7.383019E-002,7.383019E-002,
   **   ~~~   ** Supply-to-demand interface deck 1 mass flow rate check value iteration history trace: 7.383019E-002,7.383019E-002,7.383019E-002,7.383019E-002,7.383019E-002,7.383019E-002,7.383019E-002,7.383019E-002,7.383019E-002,7.383019E-002,
   **   ~~~   ** Air System Named = CENTRAL SYSTEM did not converge for energy
   **   ~~~   ** Check values should be zero. Most Recent values listed first.
   **   ~~~   ** Demand-to-Supply interface energy check value iteration history trace: 1463.083630,1463.083630,1463.083630,1463.083630,1463.083630,1463.083630,1463.083630,1463.083630,1463.083630,1463.083630,
   **   ~~~   ** Supply-to-demand interface deck 1 energy check value iteration history trace: 2492.832767,2492.832767,2492.832767,2492.832766,2492.832766,2492.832766,2492.832766,2492.832766,2492.832766,2492.832766,
   ** Warning ** SimHVAC: Maximum iterations (20) exceeded for all HVAC loops, at ANNUAL, 04/23 23:15 - 23:22
   **   ~~~   ** The solution for one or more of the Air Loop HVAC systems did not appear to converge
   **   ~~~   ** Air System Named = CENTRAL SYSTEM did not converge for mass flow rate
   **   ~~~   ** Check values should be zero. Most Recent values listed first.
   **   ~~~   ** Demand-to-Supply interface mass flow rate check value iteration history trace: 5.670141E-002,5.670141E-002,5.670141E-002,5.670141E-002,5.670141E-002,5.670141E-002,5.670141E-002,5.670141E-002,5.670141E-002,5.670141E-002,
   **   ~~~   ** Supply-to-demand interface deck 1 mass flow rate check value iteration history trace: 5.670141E-002,5.670141E-002,5.670141E-002,5.670141E-002,5.670141E-002,5.670141E-002,5.670141E-002,5.670141E-002,5.670141E-002,5.670141E-002,
   **   ~~~   ** Air System Named = CENTRAL SYSTEM did not converge for energy
   **   ~~~   ** Check values should be zero. Most Recent values listed first.
   **   ~~~   ** Demand-to-Supply interface energy check value iteration history trace: 1059.165706,1059.165706,1059.165706,1059.165705,1059.165705,1059.165705,1059.165705,1059.165705,1059.165705,1059.165705,
   **   ~~~   ** Supply-to-demand interface deck 1 energy check value iteration history trace: 1844.563347,1844.563347,1844.563346,1844.563346,1844.563346,1844.563346,1844.563346,1844.563346,1844.563346,1844.563346,
   ** Warning ** SimHVAC: Maximum iterations (20) exceeded for all HVAC loops, at ANNUAL, 05/02 08:45 - 09:00
   **   ~~~   ** The solution for one or more of the Air Loop HVAC systems did not appear to converge
   **   ~~~   ** Air System Named = CENTRAL SYSTEM did not converge for mass flow rate
   **   ~~~   ** Check values should be zero. Most Recent values listed first.
   **   ~~~   ** Demand-to-Supply interface mass flow rate check value iteration history trace: 6.901283E-002,6.901283E-002,6.901283E-002,6.901283E-002,6.901283E-002,6.901283E-002,6.901283E-002,6.901283E-002,6.901283E-002,6.901283E-002,
   **   ~~~   ** Supply-to-demand interface deck 1 mass flow rate check value iteration history trace: 6.901283E-002,6.901283E-002,6.901283E-002,6.901283E-002,6.901283E-002,6.901283E-002,6.901283E-002,6.901283E-002,6.901283E-002,6.901283E-002,
   **   ~~~   ** Air System Named = CENTRAL SYSTEM did not converge for energy
   **   ~~~   ** Check values should be zero. Most Recent values listed first.
   **   ~~~   ** Demand-to-Supply interface energy check value iteration history trace: 1367.031823,1367.031823,1367.031823,1367.031823,1367.031823,1367.031822,1367.031822,1367.031822,1367.031822,1367.031822,
   **   ~~~   ** Supply-to-demand interface deck 1 energy check value iteration history trace: 2369.354308,2369.354308,2369.354308,2369.354308,2369.354308,2369.354308,2369.354308,2369.354308,2369.354308,2369.354307,
   ************* Simulation Error Summary *************
   ** Warning ** The following Report Variables were requested but not generated -- check.rdd file
   **   ~~~   ** Either the IDF did not contain these elements, the variable name is misspelled,
   **   ~~~   ** or the requested variable is an advanced output which requires Output : Diagnostics, DisplayAdvancedReportVariables;
   ************* Key=*, VarName=BASEBOARD TOTAL HEATING ENERGY, Frequency=
   ************* Key=*, VarName=WATER HEATER NATURALGAS ENERGY, Frequency=
   ************* Key=*, VarName=COOLING COIL TOTAL HEATING ENERGY, Frequency=
   ************* There are 34 unused schedules in input.
   ************* There are 388 unused week schedules in input.
   ************* There are 396 unused day schedules in input.
   ************* Use Output:Diagnostics,DisplayUnusedSchedules; to see them.
   *************
   ************* ===== Recurring Error Summary =====
   ************* The following recurring error messages occurred.
   *************
   *************  ** Warning ** "TOTAL HOT WATER LOAD" - Target water temperature should be less than or equal to the hot water temperature error continues...
   *************  **   ~~~   **   This error occurred 134249 total times;
   *************  **   ~~~   **   during Warmup 0 times;
   *************  **   ~~~   **   during Sizing 0 times.
   *************  **   ~~~   **   Max=10.395611  Min=2.272408E-003
   *************
   *************  ** Warning ** SimHVAC: Exceeding Maximum iterations for all HVAC loops, during ANNUAL continues
   *************  **   ~~~   **   This error occurred 16 total times;
   *************  **   ~~~   **   during Warmup 0 times;
   *************  **   ~~~   **   during Sizing 0 times.
   *************
   *************
   ************* ===== Final Error Summary =====
   ************* The following error categories occurred.  Consider correcting or noting.
   ************* Nominally Unused Constructions
   ************* ..The nominally unused constructions warning is provided to alert you to potential conditions that can cause
   ************* ..extra time during simulation. Each construction is calculated by the algorithm indicated in the HeatBalanceAlgorithm
   ************* ..object. You may remove the constructions indicated (when you use the DisplayExtraWarnings option).
   *************
   ************* EnergyPlus Warmup Error Summary. During Warmup: 1 Warning; 0 Severe Errors.
   ************* EnergyPlus Sizing Error Summary. During Sizing: 4 Warning; 0 Severe Errors.
   ************* EnergyPlus Completed Successfully-- 134297 Warning; 0 Severe Errors; Elapsed Time=00hr 05min 58.58sec
