Program Version,EnergyPlus, Version 22.2.0-c249759bad, YMD=2023.09.01 20:03,
   ************* Beginning Zone Sizing Calculations
   ** Warning ** ProcessScheduleInput: Schedule:Constant="ALWAYS ON DISCRETE", Schedule Type Limits Name="ONOFF" not found -- will not be validated
   ** Warning ** Foundation:Kiva="KIVA FOUNDATION", no Interior Horizontal Insulation Material Name defined
   **   ~~~   ** Interior Horizontal Insulation Depth will not be used.
   ** Warning ** CheckUsedConstructions: There are 15 nominally unused constructions in input.
   **   ~~~   ** Each Unused construction is shown.
   ************* Construction=INTERIOR FLOOR
   ************* Construction=INTERIOR WINDOW
   ************* Construction=EXTERIOR DOOR
   ************* Construction=INTERIOR DOOR
   ************* Construction=GABLE CONSTRUCTION
   ************* Construction=CRAWL_FLOOR
   ************* Construction=INSULATED PIPE
   ************* Construction=PLAIN PIPE
   ************* Construction=TDD PIPE
   ************* Construction=TDD DOME
   ************* Construction=TDD DIFFUSER
   ************* Construction=CRAWL WALL
   ************* Construction=CEILING-FLOOR-LAYER
   ************* Construction=SLAB CONSTRUCTION W FULL R10 INSULATION
   ************* Construction=SLAB CONSTRUCTION W FULL R5 INSULATION
   ** Warning ** GetDXCoils: Coil:Heating:DX:SingleSpeed="DX_HEATING_COIL" curve values
   **   ~~~   ** ... Defrost Energy Input Ratio Function of Temperature Curve Name = DEFROSTEIR output is not equal to 1.0 (+ or - 10%) at rated conditions.
   **   ~~~   ** ... Curve output at rated conditions = 0.152
   ************* Beginning System Sizing Calculations
   ************* Beginning Plant Sizing Calculations
   ** Warning ** Coil:WaterHeating:AirToWaterHeatPump:Wrapped "HEAT PUMP WATER HEATER EVAPORATOR": Rated air volume flow rate per watt of rated total water heating capacity is out of range
   **   ~~~   ** Min Rated Vol Flow Per Watt=[4.027E-005], Rated Vol Flow Per Watt=[1.510E-004], Max Rated Vol Flow Per Watt=[8.056E-005]. See Input-Output Reference Manual for valid range.
   ************* SizeFan: : Potential issue with equipment sizing for Fan:OnOff HEAT PUMP WATER HEATER FAN
   **   ~~~   ** User-Specified Maximum Flow Rate [m3/s] = 0.22653
   **   ~~~   ** differs from Design Size Maximum Flow Rate [m3/s] = 7.55250E-002
   **   ~~~   ** This may, or may not, indicate mismatched component sizes.
   **   ~~~   ** Verify that the value entered is intended and is consistent with other components.
   ** Warning ** Water heater = WATER HEATER TANK:  Recovery Efficiency and Energy Factor could not be calculated during the test for standard ratings
   **   ~~~   ** Setpoint was never recovered and/or heater never turned on
   ** Warning ** Check input. Pump nominal power or motor efficiency is set to 0, for pump=MAINS PRESSURE
   ** Warning ** Output:Meter: invalid Key Name="ELECTRIC_RANGE:INTERIOREQUIPMENT:ELECTRICITY" - not found.
   ** Warning ** Output:Meter: invalid Key Name="ELECTRIC_DRYER:INTERIOREQUIPMENT:ELECTRICITY" - not found.
   ** Warning ** Output:Meter: invalid Key Name="HEATRECOVERY:ELECTRICITY" - not found.
   ** Warning ** Output:Meter: invalid Key Name="HEATING:NATURALGAS" - not found.
   ** Warning ** Output:Meter: invalid Key Name="WATERSYSTEMS:NATURALGAS" - not found.
   ** Warning ** Output:Meter: invalid Key Name="PROPANE:FACILITY" - not found.
   ** Warning ** Output:Meter: invalid Key Name="HEATING:PROPANE" - not found.
   ************* Testing Individual Branch Integrity
   ************* All Branches passed integrity testing
   ************* Testing Individual Supply Air Path Integrity
   ************* All Supply Air Paths passed integrity testing
   ************* Testing Individual Return Air Path Integrity
   ************* All Return Air Paths passed integrity testing
   ************* No node connection errors were found.
   ************* Beginning Simulation
   ** Warning ** AirflowNetwork::Solver::validate_distribution: Heat pump water heater is simulated along with an AirflowNetwork but is not included in the AirflowNetwork.
   ** Warning ** CalcEquipmentFlowRates: "TOTAL HOT WATER LOAD" - Target water temperature is greater than the hot water temperature by (3.83 C)
   **   ~~~   **  Environment=EXTREME_WINTER, at Simulation time=02/03 07:00 - 07:15
   **   ~~~   ** ...target water temperature     = 53.33 C
   **   ~~~   ** ...hot water temperature        = 49.51 C
   **   ~~~   ** ...Target water temperature should be less than or equal to the hot water temperature. Verify temperature setpoints and schedules.
   ** Warning ** SimHVAC: Maximum iterations (20) exceeded for all HVAC loops, at ANNUAL, 01/29 09:35 - 09:40
   **   ~~~   ** The solution for one or more of the Air Loop HVAC systems did not appear to converge
   **   ~~~   ** Air System Named = CENTRAL SYSTEM did not converge for mass flow rate
   **   ~~~   ** Check values should be zero. Most Recent values listed first.
   **   ~~~   ** Demand-to-Supply interface mass flow rate check value iteration history trace: 6.910412E-002,6.910412E-002,6.910412E-002,6.910412E-002,6.910412E-002,6.910412E-002,6.910412E-002,6.910412E-002,6.910412E-002,6.910412E-002,
   **   ~~~   ** Supply-to-demand interface deck 1 mass flow rate check value iteration history trace: 6.910412E-002,6.910412E-002,6.910412E-002,6.910412E-002,6.910412E-002,6.910412E-002,6.910412E-002,6.910412E-002,6.910412E-002,6.910412E-002,
   **   ~~~   ** Air System Named = CENTRAL SYSTEM did not converge for energy
   **   ~~~   ** Check values should be zero. Most Recent values listed first.
   **   ~~~   ** Demand-to-Supply interface energy check value iteration history trace: 1369.434259,1369.434259,1369.434259,1369.434259,1369.434259,1369.434259,1369.434259,1369.434259,1369.434258,1369.434258,
   **   ~~~   ** Supply-to-demand interface deck 1 energy check value iteration history trace: 2402.282956,2402.282956,2402.282956,2402.282956,2402.282956,2402.282956,2402.282956,2402.282956,2402.282955,2402.282955,
   ** Warning ** SimHVAC: Maximum iterations (20) exceeded for all HVAC loops, at ANNUAL, 03/02 22:38 - 22:45
   **   ~~~   ** The solution for one or more of the Air Loop HVAC systems did not appear to converge
   **   ~~~   ** Air System Named = CENTRAL SYSTEM did not converge for mass flow rate
   **   ~~~   ** Check values should be zero. Most Recent values listed first.
   **   ~~~   ** Demand-to-Supply interface mass flow rate check value iteration history trace: 3.933949E-002,3.933949E-002,3.933949E-002,3.933949E-002,3.933949E-002,3.933949E-002,3.933949E-002,3.933949E-002,3.933949E-002,3.933949E-002,
   **   ~~~   ** Supply-to-demand interface deck 1 mass flow rate check value iteration history trace: 3.933949E-002,3.933949E-002,3.933949E-002,3.933949E-002,3.933949E-002,3.933949E-002,3.933949E-002,3.933949E-002,3.933949E-002,3.933949E-002,
   **   ~~~   ** Air System Named = CENTRAL SYSTEM did not converge for energy
   **   ~~~   ** Check values should be zero. Most Recent values listed first.
   **   ~~~   ** Demand-to-Supply interface energy check value iteration history trace: 966.083579,966.083580,966.083580,966.083580,966.083580,966.083580,966.083581,966.083581,966.083581,966.083581,
   **   ~~~   ** Supply-to-demand interface deck 1 energy check value iteration history trace: 479.942826,479.942827,479.942827,479.942827,479.942827,479.942827,479.942827,479.942827,479.942827,479.942827,
   ** Warning ** SimHVAC: Maximum iterations (20) exceeded for all HVAC loops, at ANNUAL, 03/03 10:50 - 10:52
   **   ~~~   ** The solution for one or more of the Air Loop HVAC systems did not appear to converge
   **   ~~~   ** Air System Named = CENTRAL SYSTEM did not converge for mass flow rate
   **   ~~~   ** Check values should be zero. Most Recent values listed first.
   **   ~~~   ** Demand-to-Supply interface mass flow rate check value iteration history trace: 0.310512,0.310512,0.310512,0.310512,0.310512,0.310512,0.310512,0.310512,0.310512,0.310512,
   **   ~~~   ** Supply-to-demand interface deck 1 mass flow rate check value iteration history trace: 0.310512,0.310512,0.310512,0.310512,0.310512,0.310512,0.310512,0.310512,0.310512,0.310512,
   **   ~~~   ** Air System Named = CENTRAL SYSTEM did not converge for energy
   **   ~~~   ** Check values should be zero. Most Recent values listed first.
   **   ~~~   ** Demand-to-Supply interface energy check value iteration history trace: 7422.921829,7422.921830,7422.921830,7422.921831,7422.921831,7422.921832,7422.921832,7422.921833,7422.921833,7422.921834,
   **   ~~~   ** Supply-to-demand interface deck 1 energy check value iteration history trace: 3477.624101,3477.624102,3477.624102,3477.624102,3477.624102,3477.624103,3477.624103,3477.624103,3477.624103,3477.624104,
   ** Warning ** SimHVAC: Maximum iterations (20) exceeded for all HVAC loops, at ANNUAL, 03/04 10:23 - 10:25
   **   ~~~   ** The solution for one or more of the Air Loop HVAC systems did not appear to converge
   **   ~~~   ** Air System Named = CENTRAL SYSTEM did not converge for mass flow rate
   **   ~~~   ** Check values should be zero. Most Recent values listed first.
   **   ~~~   ** Demand-to-Supply interface mass flow rate check value iteration history trace: 7.703509E-002,7.703509E-002,7.703509E-002,7.703509E-002,7.703509E-002,7.703509E-002,7.703509E-002,7.703509E-002,7.703509E-002,7.703509E-002,
   **   ~~~   ** Supply-to-demand interface deck 1 mass flow rate check value iteration history trace: 7.703509E-002,7.703509E-002,7.703509E-002,7.703509E-002,7.703509E-002,7.703509E-002,7.703509E-002,7.703509E-002,7.703509E-002,7.703509E-002,
   **   ~~~   ** Air System Named = CENTRAL SYSTEM did not converge for energy
   **   ~~~   ** Check values should be zero. Most Recent values listed first.
   **   ~~~   ** Demand-to-Supply interface energy check value iteration history trace: 1812.671244,1812.671244,1812.671244,1812.671244,1812.671245,1812.671245,1812.671245,1812.671245,1812.671245,1812.671245,
   **   ~~~   ** Supply-to-demand interface deck 1 energy check value iteration history trace: 740.569349,740.569349,740.569349,740.569349,740.569349,740.569349,740.569349,740.569349,740.569349,740.569349,
   ** Warning ** SimHVAC: Maximum iterations (20) exceeded for all HVAC loops, at ANNUAL, 03/08 08:38 - 08:41
   **   ~~~   ** The solution for one or more of the Air Loop HVAC systems did not appear to converge
   **   ~~~   ** Air System Named = CENTRAL SYSTEM did not converge for mass flow rate
   **   ~~~   ** Check values should be zero. Most Recent values listed first.
   **   ~~~   ** Demand-to-Supply interface mass flow rate check value iteration history trace: 0.246838,0.246838,0.246838,0.246838,0.246838,0.246838,0.246838,0.246838,0.246838,0.246838,
   **   ~~~   ** Supply-to-demand interface deck 1 mass flow rate check value iteration history trace: 0.246838,0.246838,0.246838,0.246838,0.246838,0.246838,0.246838,0.246838,0.246838,0.246838,
   **   ~~~   ** Air System Named = CENTRAL SYSTEM did not converge for energy
   **   ~~~   ** Check values should be zero. Most Recent values listed first.
   **   ~~~   ** Demand-to-Supply interface energy check value iteration history trace: 5900.881047,5900.881048,5900.881048,5900.881049,5900.881049,5900.881050,5900.881050,5900.881051,5900.881051,5900.881052,
   **   ~~~   ** Supply-to-demand interface deck 1 energy check value iteration history trace: 3222.900914,3222.900914,3222.900914,3222.900914,3222.900915,3222.900915,3222.900915,3222.900916,3222.900916,3222.900916,
   ** Warning ** SimHVAC: Maximum iterations (20) exceeded for all HVAC loops, at ANNUAL, 03/11 01:53 - 02:00
   **   ~~~   ** The solution for one or more of the Air Loop HVAC systems did not appear to converge
   **   ~~~   ** Air System Named = CENTRAL SYSTEM did not converge for mass flow rate
   **   ~~~   ** Check values should be zero. Most Recent values listed first.
   **   ~~~   ** Demand-to-Supply interface mass flow rate check value iteration history trace: 0.255764,0.255764,0.255764,0.255764,0.255764,0.255764,0.255764,0.255764,0.255764,0.255764,
   **   ~~~   ** Supply-to-demand interface deck 1 mass flow rate check value iteration history trace: 0.255764,0.255764,0.255764,0.255764,0.255764,0.255764,0.255764,0.255764,0.255764,0.255764,
   **   ~~~   ** Air System Named = CENTRAL SYSTEM did not converge for energy
   **   ~~~   ** Check values should be zero. Most Recent values listed first.
   **   ~~~   ** Demand-to-Supply interface energy check value iteration history trace: 6472.133702,6472.133704,6472.133705,6472.133706,6472.133708,6472.133709,6472.133710,6472.133711,6472.133713,6472.133714,
   **   ~~~   ** Supply-to-demand interface deck 1 energy check value iteration history trace: 3884.808542,3884.808543,3884.808543,3884.808544,3884.808545,3884.808546,3884.808546,3884.808547,3884.808548,3884.808549,
   ** Warning ** SimHVAC: Maximum iterations (20) exceeded for all HVAC loops, at ANNUAL, 03/26 11:27 - 11:30
   **   ~~~   ** The solution for one or more of the Air Loop HVAC systems did not appear to converge
   **   ~~~   ** Air System Named = CENTRAL SYSTEM did not converge for mass flow rate
   **   ~~~   ** Check values should be zero. Most Recent values listed first.
   **   ~~~   ** Demand-to-Supply interface mass flow rate check value iteration history trace: 4.530690E-002,4.530690E-002,4.530690E-002,4.530690E-002,4.530690E-002,4.530690E-002,4.530690E-002,4.530690E-002,4.530690E-002,4.530690E-002,
   **   ~~~   ** Supply-to-demand interface deck 1 mass flow rate check value iteration history trace: 4.530690E-002,4.530690E-002,4.530690E-002,4.530690E-002,4.530690E-002,4.530690E-002,4.530690E-002,4.530690E-002,4.530690E-002,4.530690E-002,
   **   ~~~   ** Air System Named = CENTRAL SYSTEM did not converge for energy
   **   ~~~   ** Check values should be zero. Most Recent values listed first.
   **   ~~~   ** Demand-to-Supply interface energy check value iteration history trace: 1064.376012,1064.376012,1064.376012,1064.376012,1064.376012,1064.376012,1064.376012,1064.376012,1064.376012,1064.376012,
   **   ~~~   ** Supply-to-demand interface deck 1 energy check value iteration history trace: 432.883814,432.883814,432.883814,432.883814,432.883814,432.883814,432.883814,432.883814,432.883814,432.883814,
   ** Warning ** SimHVAC: Maximum iterations (20) exceeded for all HVAC loops, at ANNUAL, 03/27 10:08 - 10:11
   **   ~~~   ** The solution for one or more of the Air Loop HVAC systems did not appear to converge
   **   ~~~   ** Air System Named = CENTRAL SYSTEM did not converge for mass flow rate
   **   ~~~   ** Check values should be zero. Most Recent values listed first.
   **   ~~~   ** Demand-to-Supply interface mass flow rate check value iteration history trace: 9.740692E-002,9.740692E-002,9.740692E-002,9.740692E-002,9.740692E-002,9.740692E-002,9.740692E-002,9.740692E-002,9.740692E-002,9.740692E-002,
   **   ~~~   ** Supply-to-demand interface deck 1 mass flow rate check value iteration history trace: 9.740692E-002,9.740692E-002,9.740692E-002,9.740692E-002,9.740692E-002,9.740692E-002,9.740692E-002,9.740692E-002,9.740692E-002,9.740692E-002,
   **   ~~~   ** Air System Named = CENTRAL SYSTEM did not converge for energy
   **   ~~~   ** Check values should be zero. Most Recent values listed first.
   **   ~~~   ** Demand-to-Supply interface energy check value iteration history trace: 2301.374054,2301.374054,2301.374054,2301.374054,2301.374054,2301.374055,2301.374055,2301.374055,2301.374055,2301.374055,
   **   ~~~   ** Supply-to-demand interface deck 1 energy check value iteration history trace: 1056.964761,1056.964761,1056.964761,1056.964761,1056.964761,1056.964761,1056.964761,1056.964762,1056.964762,1056.964762,
   ** Warning ** SimHVAC: Maximum iterations (20) exceeded for all HVAC loops, at ANNUAL, 12/12 06:30 - 06:45
   **   ~~~   ** The solution for one or more of the Air Loop HVAC systems did not appear to converge
   **   ~~~   ** Air System Named = CENTRAL SYSTEM did not converge for mass flow rate
   **   ~~~   ** Check values should be zero. Most Recent values listed first.
   **   ~~~   ** Demand-to-Supply interface mass flow rate check value iteration history trace: 5.428896E-002,5.428896E-002,5.428896E-002,5.428896E-002,5.428896E-002,5.428896E-002,5.428896E-002,5.428896E-002,5.428896E-002,5.428896E-002,
   **   ~~~   ** Supply-to-demand interface deck 1 mass flow rate check value iteration history trace: 5.428896E-002,5.428896E-002,5.428896E-002,5.428896E-002,5.428896E-002,5.428896E-002,5.428896E-002,5.428896E-002,5.428896E-002,5.428896E-002,
   **   ~~~   ** Air System Named = CENTRAL SYSTEM did not converge for energy
   **   ~~~   ** Check values should be zero. Most Recent values listed first.
   **   ~~~   ** Demand-to-Supply interface energy check value iteration history trace: 1076.298440,1076.298439,1076.298439,1076.298439,1076.298439,1076.298439,1076.298439,1076.298439,1076.298439,1076.298439,
   **   ~~~   ** Supply-to-demand interface deck 1 energy check value iteration history trace: 1896.070963,1896.070963,1896.070963,1896.070963,1896.070963,1896.070963,1896.070963,1896.070963,1896.070963,1896.070963,
   ** Warning ** SimHVAC: Maximum iterations (20) exceeded for all HVAC loops, at ANNUAL, 12/15 11:23 - 11:30
   **   ~~~   ** The solution for one or more of the Air Loop HVAC systems did not appear to converge
   **   ~~~   ** Air System Named = CENTRAL SYSTEM did not converge for mass flow rate
   **   ~~~   ** Check values should be zero. Most Recent values listed first.
   **   ~~~   ** Demand-to-Supply interface mass flow rate check value iteration history trace: 0.114826,0.114826,0.114826,0.114826,0.114826,0.114826,0.114826,0.114826,0.114826,0.114826,
   **   ~~~   ** Supply-to-demand interface deck 1 mass flow rate check value iteration history trace: 0.114826,0.114826,0.114826,0.114826,0.114826,0.114826,0.114826,0.114826,0.114826,0.114826,
   **   ~~~   ** Air System Named = CENTRAL SYSTEM did not converge for energy
   **   ~~~   ** Check values should be zero. Most Recent values listed first.
   **   ~~~   ** Demand-to-Supply interface energy check value iteration history trace: 2730.212243,2730.212244,2730.212245,2730.212246,2730.212247,2730.212247,2730.212248,2730.212249,2730.212250,2730.212251,
   **   ~~~   ** Supply-to-demand interface deck 1 energy check value iteration history trace: 1555.573671,1555.573672,1555.573672,1555.573673,1555.573673,1555.573674,1555.573674,1555.573674,1555.573675,1555.573675,
   ** Warning ** SimHVAC: Maximum iterations (20) exceeded for all HVAC loops, at ANNUAL, 12/19 12:30 - 12:45
   **   ~~~   ** The solution for one or more of the Air Loop HVAC systems did not appear to converge
   **   ~~~   ** Air System Named = CENTRAL SYSTEM did not converge for mass flow rate
   **   ~~~   ** Check values should be zero. Most Recent values listed first.
   **   ~~~   ** Demand-to-Supply interface mass flow rate check value iteration history trace: 1.019029E-002,1.019029E-002,1.019029E-002,1.019029E-002,1.019029E-002,1.019029E-002,1.019029E-002,1.019029E-002,1.019029E-002,1.019029E-002,
   **   ~~~   ** Supply-to-demand interface deck 1 mass flow rate check value iteration history trace: 1.019029E-002,1.019029E-002,1.019029E-002,1.019029E-002,1.019029E-002,1.019029E-002,1.019029E-002,1.019029E-002,1.019029E-002,1.019029E-002,
   **   ~~~   ** Air System Named = CENTRAL SYSTEM did not converge for energy
   **   ~~~   ** Check values should be zero. Most Recent values listed first.
   **   ~~~   ** Demand-to-Supply interface energy check value iteration history trace: 236.821746,236.821746,236.821746,236.821746,236.821746,236.821746,236.821746,236.821746,236.821746,236.821746,
   **   ~~~   ** Supply-to-demand interface deck 1 energy check value iteration history trace: 111.137776,111.137776,111.137776,111.137776,111.137776,111.137776,111.137776,111.137776,111.137776,111.137776,
   ** Warning ** SimHVAC: Maximum iterations (20) exceeded for all HVAC loops, at ANNUAL, 12/20 08:45 - 09:00
   **   ~~~   ** The solution for one or more of the Air Loop HVAC systems did not appear to converge
   **   ~~~   ** Air System Named = CENTRAL SYSTEM did not converge for mass flow rate
   **   ~~~   ** Check values should be zero. Most Recent values listed first.
   **   ~~~   ** Demand-to-Supply interface mass flow rate check value iteration history trace: 5.338737E-002,5.338737E-002,5.338737E-002,5.338737E-002,5.338737E-002,5.338737E-002,5.338737E-002,5.338737E-002,5.338737E-002,5.338737E-002,
   **   ~~~   ** Supply-to-demand interface deck 1 mass flow rate check value iteration history trace: 5.338737E-002,5.338737E-002,5.338737E-002,5.338737E-002,5.338737E-002,5.338737E-002,5.338737E-002,5.338737E-002,5.338737E-002,5.338737E-002,
   **   ~~~   ** Air System Named = CENTRAL SYSTEM did not converge for energy
   **   ~~~   ** Check values should be zero. Most Recent values listed first.
   **   ~~~   ** Demand-to-Supply interface energy check value iteration history trace: 1263.855052,1263.855052,1263.855052,1263.855052,1263.855052,1263.855052,1263.855053,1263.855053,1263.855053,1263.855053,
   **   ~~~   ** Supply-to-demand interface deck 1 energy check value iteration history trace: 734.291373,734.291374,734.291374,734.291374,734.291374,734.291374,734.291374,734.291374,734.291374,734.291374,
   ************* Simulation Error Summary *************
   ** Warning ** The following Report Variables were requested but not generated -- check.rdd file
   **   ~~~   ** Either the IDF did not contain these elements, the variable name is misspelled,
   **   ~~~   ** or the requested variable is an advanced output which requires Output : Diagnostics, DisplayAdvancedReportVariables;
   ************* Key=*, VarName=BASEBOARD TOTAL HEATING ENERGY, Frequency=
   ************* Key=*, VarName=WATER HEATER NATURALGAS ENERGY, Frequency=
   ************* Key=*, VarName=COOLING COIL TOTAL HEATING ENERGY, Frequency=
   ************* There are 34 unused schedules in input.
   ************* There are 388 unused week schedules in input.
   ************* There are 396 unused day schedules in input.
   ************* Use Output:Diagnostics,DisplayUnusedSchedules; to see them.
   *************
   ************* ===== Recurring Error Summary =====
   ************* The following recurring error messages occurred.
   *************
   *************  ** Warning ** "TOTAL HOT WATER LOAD" - Target water temperature should be less than or equal to the hot water temperature error continues...
   *************  **   ~~~   **   This error occurred 171019 total times;
   *************  **   ~~~   **   during Warmup 0 times;
   *************  **   ~~~   **   during Sizing 0 times.
   *************  **   ~~~   **   Max=11.507518  Min=1.317213E-004
   *************
   *************
   ************* ===== Final Error Summary =====
   ************* The following error categories occurred.  Consider correcting or noting.
   ************* Nominally Unused Constructions
   ************* ..The nominally unused constructions warning is provided to alert you to potential conditions that can cause
   ************* ..extra time during simulation. Each construction is calculated by the algorithm indicated in the HeatBalanceAlgorithm
   ************* ..object. You may remove the constructions indicated (when you use the DisplayExtraWarnings option).
   *************
   ************* EnergyPlus Warmup Error Summary. During Warmup: 1 Warning; 0 Severe Errors.
   ************* EnergyPlus Sizing Error Summary. During Sizing: 4 Warning; 0 Severe Errors.
   ************* EnergyPlus Completed Successfully-- 171048 Warning; 0 Severe Errors; Elapsed Time=00hr 01min 41.82sec
