Program Version,EnergyPlus, Version 22.2.0-c249759bad, YMD=2023.09.01 19:35,
   ************* Beginning Zone Sizing Calculations
   ** Warning ** ProcessScheduleInput: Schedule:Constant="ALWAYS ON DISCRETE", Schedule Type Limits Name="ONOFF" not found -- will not be validated
   ** Warning ** Foundation:Kiva="KIVA FOUNDATION", no Interior Horizontal Insulation Material Name defined
   **   ~~~   ** Interior Horizontal Insulation Depth will not be used.
   ** Warning ** CheckUsedConstructions: There are 15 nominally unused constructions in input.
   **   ~~~   ** Each Unused construction is shown.
   ************* Construction=INTERIOR FLOOR
   ************* Construction=INTERIOR WINDOW
   ************* Construction=EXTERIOR DOOR
   ************* Construction=INTERIOR DOOR
   ************* Construction=GABLE CONSTRUCTION
   ************* Construction=CRAWL_FLOOR
   ************* Construction=INSULATED PIPE
   ************* Construction=PLAIN PIPE
   ************* Construction=TDD PIPE
   ************* Construction=TDD DOME
   ************* Construction=TDD DIFFUSER
   ************* Construction=CRAWL WALL
   ************* Construction=CEILING-FLOOR-LAYER
   ************* Construction=SLAB CONSTRUCTION W FULL R10 INSULATION
   ************* Construction=SLAB CONSTRUCTION W FULL R5 INSULATION
   ** Warning ** GetDXCoils: Coil:Heating:DX:SingleSpeed="DX_HEATING_COIL" curve values
   **   ~~~   ** ... Defrost Energy Input Ratio Function of Temperature Curve Name = DEFROSTEIR output is not equal to 1.0 (+ or - 10%) at rated conditions.
   **   ~~~   ** ... Curve output at rated conditions = 0.152
   ************* Beginning System Sizing Calculations
   ************* Beginning Plant Sizing Calculations
   ** Warning ** Coil:WaterHeating:AirToWaterHeatPump:Wrapped "HEAT PUMP WATER HEATER EVAPORATOR": Rated air volume flow rate per watt of rated total water heating capacity is out of range
   **   ~~~   ** Min Rated Vol Flow Per Watt=[4.027E-005], Rated Vol Flow Per Watt=[1.510E-004], Max Rated Vol Flow Per Watt=[8.056E-005]. See Input-Output Reference Manual for valid range.
   ************* SizeFan: : Potential issue with equipment sizing for Fan:OnOff HEAT PUMP WATER HEATER FAN
   **   ~~~   ** User-Specified Maximum Flow Rate [m3/s] = 0.22653
   **   ~~~   ** differs from Design Size Maximum Flow Rate [m3/s] = 7.55250E-002
   **   ~~~   ** This may, or may not, indicate mismatched component sizes.
   **   ~~~   ** Verify that the value entered is intended and is consistent with other components.
   ** Warning ** Water heater = WATER HEATER TANK:  Recovery Efficiency and Energy Factor could not be calculated during the test for standard ratings
   **   ~~~   ** Setpoint was never recovered and/or heater never turned on
   ** Warning ** Check input. Pump nominal power or motor efficiency is set to 0, for pump=MAINS PRESSURE
   ** Warning ** Output:Meter: invalid Key Name="ELECTRIC_RANGE:INTERIOREQUIPMENT:ELECTRICITY" - not found.
   ** Warning ** Output:Meter: invalid Key Name="ELECTRIC_DRYER:INTERIOREQUIPMENT:ELECTRICITY" - not found.
   ** Warning ** Output:Meter: invalid Key Name="HEATRECOVERY:ELECTRICITY" - not found.
   ** Warning ** Output:Meter: invalid Key Name="HEATING:NATURALGAS" - not found.
   ** Warning ** Output:Meter: invalid Key Name="WATERSYSTEMS:NATURALGAS" - not found.
   ** Warning ** Output:Meter: invalid Key Name="PROPANE:FACILITY" - not found.
   ** Warning ** Output:Meter: invalid Key Name="HEATING:PROPANE" - not found.
   ************* Testing Individual Branch Integrity
   ************* All Branches passed integrity testing
   ************* Testing Individual Supply Air Path Integrity
   ************* All Supply Air Paths passed integrity testing
   ************* Testing Individual Return Air Path Integrity
   ************* All Return Air Paths passed integrity testing
   ************* No node connection errors were found.
   ************* Beginning Simulation
   ** Warning ** AirflowNetwork::Solver::validate_distribution: Heat pump water heater is simulated along with an AirflowNetwork but is not included in the AirflowNetwork.
   ** Warning ** CalcEquipmentFlowRates: "TOTAL HOT WATER LOAD" - Target water temperature is greater than the hot water temperature by (1.44 C)
   **   ~~~   **  Environment=EXTREME_WINTER, at Simulation time=01/20 06:00 - 06:15
   **   ~~~   ** ...target water temperature     = 53.33 C
   **   ~~~   ** ...hot water temperature        = 51.89 C
   **   ~~~   ** ...Target water temperature should be less than or equal to the hot water temperature. Verify temperature setpoints and schedules.
   ** Warning ** SimHVAC: Maximum iterations (20) exceeded for all HVAC loops, at EXTREME_SUMMER, 07/18 05:23 - 05:30
   **   ~~~   ** The solution for one or more of the Air Loop HVAC systems did not appear to converge
   **   ~~~   ** Air System Named = CENTRAL SYSTEM did not converge for mass flow rate
   **   ~~~   ** Check values should be zero. Most Recent values listed first.
   **   ~~~   ** Demand-to-Supply interface mass flow rate check value iteration history trace: 0.310035,0.310035,0.310035,0.310035,0.310035,0.310035,0.310035,0.310035,0.310035,0.310035,
   **   ~~~   ** Supply-to-demand interface deck 1 mass flow rate check value iteration history trace: 0.310035,0.310035,0.310035,0.310035,0.310035,0.310035,0.310035,0.310035,0.310035,0.310035,
   **   ~~~   ** Air System Named = CENTRAL SYSTEM did not converge for energy
   **   ~~~   ** Check values should be zero. Most Recent values listed first.
   **   ~~~   ** Demand-to-Supply interface energy check value iteration history trace: 7480.157785,7480.157787,7480.157790,7480.157792,7480.157794,7480.157797,7480.157799,7480.157801,7480.157804,7480.157806,
   **   ~~~   ** Supply-to-demand interface deck 1 energy check value iteration history trace: 3821.490500,3821.490501,3821.490502,3821.490503,3821.490505,3821.490506,3821.490507,3821.490508,3821.490509,3821.490511,
   ** Warning ** SimHVAC: Maximum iterations (20) exceeded for all HVAC loops, at ANNUAL, 01/09 21:00 - 21:05
   **   ~~~   ** The solution for one or more of the Air Loop HVAC systems did not appear to converge
   **   ~~~   ** Air System Named = CENTRAL SYSTEM did not converge for mass flow rate
   **   ~~~   ** Check values should be zero. Most Recent values listed first.
   **   ~~~   ** Demand-to-Supply interface mass flow rate check value iteration history trace: 8.175299E-002,8.175299E-002,8.175299E-002,8.175299E-002,8.175299E-002,8.175299E-002,8.175299E-002,8.175299E-002,8.175299E-002,8.175299E-002,
   **   ~~~   ** Supply-to-demand interface deck 1 mass flow rate check value iteration history trace: 8.175299E-002,8.175299E-002,8.175299E-002,8.175299E-002,8.175299E-002,8.175299E-002,8.175299E-002,8.175299E-002,8.175299E-002,8.175299E-002,
   **   ~~~   ** Air System Named = CENTRAL SYSTEM did not converge for energy
   **   ~~~   ** Check values should be zero. Most Recent values listed first.
   **   ~~~   ** Demand-to-Supply interface energy check value iteration history trace: 1619.238674,1619.238674,1619.238674,1619.238674,1619.238674,1619.238673,1619.238673,1619.238673,1619.238673,1619.238673,
   **   ~~~   ** Supply-to-demand interface deck 1 energy check value iteration history trace: 2566.294982,2566.294982,2566.294982,2566.294981,2566.294981,2566.294981,2566.294981,2566.294981,2566.294981,2566.294981,
   ** Warning ** SimHVAC: Maximum iterations (20) exceeded for all HVAC loops, at ANNUAL, 02/12 19:08 - 19:15
   **   ~~~   ** The solution for one or more of the Air Loop HVAC systems did not appear to converge
   **   ~~~   ** Air System Named = CENTRAL SYSTEM did not converge for mass flow rate
   **   ~~~   ** Check values should be zero. Most Recent values listed first.
   **   ~~~   ** Demand-to-Supply interface mass flow rate check value iteration history trace: 7.077246E-002,7.077246E-002,7.077246E-002,7.077246E-002,7.077246E-002,7.077246E-002,7.077246E-002,7.077246E-002,7.077246E-002,7.077246E-002,
   **   ~~~   ** Supply-to-demand interface deck 1 mass flow rate check value iteration history trace: 7.077246E-002,7.077246E-002,7.077246E-002,7.077246E-002,7.077246E-002,7.077246E-002,7.077246E-002,7.077246E-002,7.077246E-002,7.077246E-002,
   **   ~~~   ** Air System Named = CENTRAL SYSTEM did not converge for energy
   **   ~~~   ** Check values should be zero. Most Recent values listed first.
   **   ~~~   ** Demand-to-Supply interface energy check value iteration history trace: 1402.524181,1402.524181,1402.524181,1402.524181,1402.524181,1402.524181,1402.524180,1402.524180,1402.524180,1402.524180,
   **   ~~~   ** Supply-to-demand interface deck 1 energy check value iteration history trace: 2558.062374,2558.062374,2558.062374,2558.062374,2558.062374,2558.062374,2558.062374,2558.062374,2558.062373,2558.062373,
   ** Warning ** SimHVAC: Maximum iterations (20) exceeded for all HVAC loops, at ANNUAL, 02/19 12:00 - 12:15
   **   ~~~   ** The solution for one or more of the Air Loop HVAC systems did not appear to converge
   **   ~~~   ** Air System Named = CENTRAL SYSTEM did not converge for mass flow rate
   **   ~~~   ** Check values should be zero. Most Recent values listed first.
   **   ~~~   ** Demand-to-Supply interface mass flow rate check value iteration history trace: 7.811989E-002,7.811989E-002,7.811989E-002,7.811989E-002,7.811989E-002,7.811989E-002,7.811989E-002,7.811989E-002,7.811989E-002,7.811989E-002,
   **   ~~~   ** Supply-to-demand interface deck 1 mass flow rate check value iteration history trace: 7.811989E-002,7.811989E-002,7.811989E-002,7.811989E-002,7.811989E-002,7.811989E-002,7.811989E-002,7.811989E-002,7.811989E-002,7.811989E-002,
   **   ~~~   ** Air System Named = CENTRAL SYSTEM did not converge for energy
   **   ~~~   ** Check values should be zero. Most Recent values listed first.
   **   ~~~   ** Demand-to-Supply interface energy check value iteration history trace: 1548.060337,1548.060336,1548.060336,1548.060336,1548.060336,1548.060336,1548.060336,1548.060336,1548.060336,1548.060336,
   **   ~~~   ** Supply-to-demand interface deck 1 energy check value iteration history trace: 2489.815520,2489.815520,2489.815519,2489.815519,2489.815519,2489.815519,2489.815519,2489.815519,2489.815519,2489.815518,
   ** Warning ** SimHVAC: Maximum iterations (20) exceeded for all HVAC loops, at ANNUAL, 03/05 22:30 - 22:38
   **   ~~~   ** The solution for one or more of the Air Loop HVAC systems did not appear to converge
   **   ~~~   ** Air System Named = CENTRAL SYSTEM did not converge for mass flow rate
   **   ~~~   ** Check values should be zero. Most Recent values listed first.
   **   ~~~   ** Demand-to-Supply interface mass flow rate check value iteration history trace: 7.140890E-002,7.140890E-002,7.140890E-002,7.140890E-002,7.140890E-002,7.140890E-002,7.140890E-002,7.140890E-002,7.140890E-002,7.140890E-002,
   **   ~~~   ** Supply-to-demand interface deck 1 mass flow rate check value iteration history trace: 7.140890E-002,7.140890E-002,7.140890E-002,7.140890E-002,7.140890E-002,7.140890E-002,7.140890E-002,7.140890E-002,7.140890E-002,7.140890E-002,
   **   ~~~   ** Air System Named = CENTRAL SYSTEM did not converge for energy
   **   ~~~   ** Check values should be zero. Most Recent values listed first.
   **   ~~~   ** Demand-to-Supply interface energy check value iteration history trace: 1335.400864,1335.400864,1335.400864,1335.400864,1335.400863,1335.400863,1335.400863,1335.400863,1335.400863,1335.400863,
   **   ~~~   ** Supply-to-demand interface deck 1 energy check value iteration history trace: 2209.451632,2209.451632,2209.451632,2209.451632,2209.451632,2209.451632,2209.451632,2209.451631,2209.451631,2209.451631,
   ** Warning ** SimHVAC: Maximum iterations (20) exceeded for all HVAC loops, at ANNUAL, 03/14 10:15 - 10:30
   **   ~~~   ** The solution for one or more of the Air Loop HVAC systems did not appear to converge
   **   ~~~   ** Air System Named = CENTRAL SYSTEM did not converge for mass flow rate
   **   ~~~   ** Check values should be zero. Most Recent values listed first.
   **   ~~~   ** Demand-to-Supply interface mass flow rate check value iteration history trace: 3.043431E-002,3.043431E-002,3.043431E-002,3.043431E-002,3.043431E-002,3.043431E-002,3.043431E-002,3.043431E-002,3.043431E-002,3.043431E-002,
   **   ~~~   ** Supply-to-demand interface deck 1 mass flow rate check value iteration history trace: 3.043431E-002,3.043431E-002,3.043431E-002,3.043431E-002,3.043431E-002,3.043431E-002,3.043431E-002,3.043431E-002,3.043431E-002,3.043431E-002,
   **   ~~~   ** Air System Named = CENTRAL SYSTEM did not converge for energy
   **   ~~~   ** Check values should be zero. Most Recent values listed first.
   **   ~~~   ** Demand-to-Supply interface energy check value iteration history trace: 603.071232,603.071232,603.071232,603.071232,603.071232,603.071232,603.071232,603.071232,603.071232,603.071232,
   **   ~~~   ** Supply-to-demand interface deck 1 energy check value iteration history trace: 1101.086240,1101.086240,1101.086240,1101.086239,1101.086239,1101.086239,1101.086239,1101.086239,1101.086239,1101.086239,
   ** Warning ** SimHVAC: Maximum iterations (20) exceeded for all HVAC loops, at ANNUAL, 03/18 11:45 - 11:52
   **   ~~~   ** The solution for one or more of the Air Loop HVAC systems did not appear to converge
   **   ~~~   ** Air System Named = CENTRAL SYSTEM did not converge for mass flow rate
   **   ~~~   ** Check values should be zero. Most Recent values listed first.
   **   ~~~   ** Demand-to-Supply interface mass flow rate check value iteration history trace: 4.907086E-002,4.907086E-002,4.907086E-002,4.907086E-002,4.907086E-002,4.907086E-002,4.907086E-002,4.907086E-002,4.907086E-002,4.907086E-002,
   **   ~~~   ** Supply-to-demand interface deck 1 mass flow rate check value iteration history trace: 4.907086E-002,4.907086E-002,4.907086E-002,4.907086E-002,4.907086E-002,4.907086E-002,4.907086E-002,4.907086E-002,4.907086E-002,4.907086E-002,
   **   ~~~   ** Air System Named = CENTRAL SYSTEM did not converge for energy
   **   ~~~   ** Check values should be zero. Most Recent values listed first.
   **   ~~~   ** Demand-to-Supply interface energy check value iteration history trace: 972.401693,972.401693,972.401693,972.401693,972.401693,972.401693,972.401693,972.401693,972.401693,972.401693,
   **   ~~~   ** Supply-to-demand interface deck 1 energy check value iteration history trace: 1876.221559,1876.221558,1876.221558,1876.221558,1876.221558,1876.221558,1876.221558,1876.221558,1876.221558,1876.221558,
   ** Warning ** SimHVAC: Maximum iterations (20) exceeded for all HVAC loops, at ANNUAL, 03/22 12:45 - 13:00
   **   ~~~   ** The solution for one or more of the Air Loop HVAC systems did not appear to converge
   **   ~~~   ** Air System Named = CENTRAL SYSTEM did not converge for mass flow rate
   **   ~~~   ** Check values should be zero. Most Recent values listed first.
   **   ~~~   ** Demand-to-Supply interface mass flow rate check value iteration history trace: 1.056759E-002,1.056759E-002,1.056759E-002,1.056759E-002,1.056759E-002,1.056759E-002,1.056759E-002,1.056759E-002,1.056759E-002,1.056759E-002,
   **   ~~~   ** Supply-to-demand interface deck 1 mass flow rate check value iteration history trace: 1.056759E-002,1.056759E-002,1.056759E-002,1.056759E-002,1.056759E-002,1.056759E-002,1.056759E-002,1.056759E-002,1.056759E-002,1.056759E-002,
   **   ~~~   ** Air System Named = CENTRAL SYSTEM did not converge for energy
   **   ~~~   ** Check values should be zero. Most Recent values listed first.
   **   ~~~   ** Demand-to-Supply interface energy check value iteration history trace: 208.702252,208.702252,208.702252,208.702252,208.702252,208.702252,208.702252,208.702252,208.702252,208.702252,
   **   ~~~   ** Supply-to-demand interface deck 1 energy check value iteration history trace: 416.341685,416.341685,416.341685,416.341685,416.341685,416.341685,416.341685,416.341685,416.341685,416.341685,
   **   ~~~   ** Node named ZONE INLET NODE shows oscillating temperatures across iterations with a repeated value of 39.208064
   **   ~~~   ** Node named ZONE INLET NODE temperature [C] iteration history trace (most recent first): 39.208064,39.208063,39.208063,39.208063,39.208062,39.208062,39.208062,39.208062,39.208061,39.208061,
   ** Warning ** SimHVAC: Maximum iterations (20) exceeded for all HVAC loops, at ANNUAL, 03/28 14:30 - 14:38
   **   ~~~   ** The solution for one or more of the Air Loop HVAC systems did not appear to converge
   **   ~~~   ** Air System Named = CENTRAL SYSTEM did not converge for mass flow rate
   **   ~~~   ** Check values should be zero. Most Recent values listed first.
   **   ~~~   ** Demand-to-Supply interface mass flow rate check value iteration history trace: 5.506657E-002,5.506657E-002,5.506657E-002,5.506657E-002,5.506657E-002,5.506657E-002,5.506657E-002,5.506657E-002,5.506657E-002,5.506657E-002,
   **   ~~~   ** Supply-to-demand interface deck 1 mass flow rate check value iteration history trace: 5.506657E-002,5.506657E-002,5.506657E-002,5.506657E-002,5.506657E-002,5.506657E-002,5.506657E-002,5.506657E-002,5.506657E-002,5.506657E-002,
   **   ~~~   ** Air System Named = CENTRAL SYSTEM did not converge for energy
   **   ~~~   ** Check values should be zero. Most Recent values listed first.
   **   ~~~   ** Demand-to-Supply interface energy check value iteration history trace: 1076.779355,1076.779355,1076.779354,1076.779354,1076.779354,1076.779354,1076.779354,1076.779354,1076.779354,1076.779354,
   **   ~~~   ** Supply-to-demand interface deck 1 energy check value iteration history trace: 1802.114327,1802.114327,1802.114327,1802.114327,1802.114326,1802.114326,1802.114326,1802.114326,1802.114326,1802.114326,
   ** Warning ** SimHVAC: Maximum iterations (20) exceeded for all HVAC loops, at ANNUAL, 03/29 21:30 - 21:45
   **   ~~~   ** The solution for one or more of the Air Loop HVAC systems did not appear to converge
   **   ~~~   ** Air System Named = CENTRAL SYSTEM did not converge for mass flow rate
   **   ~~~   ** Check values should be zero. Most Recent values listed first.
   **   ~~~   ** Demand-to-Supply interface mass flow rate check value iteration history trace: 5.262410E-002,5.262410E-002,5.262410E-002,5.262410E-002,5.262410E-002,5.262410E-002,5.262410E-002,5.262410E-002,5.262410E-002,5.262410E-002,
   **   ~~~   ** Supply-to-demand interface deck 1 mass flow rate check value iteration history trace: 5.262410E-002,5.262410E-002,5.262410E-002,5.262410E-002,5.262410E-002,5.262410E-002,5.262410E-002,5.262410E-002,5.262410E-002,5.262410E-002,
   **   ~~~   ** Air System Named = CENTRAL SYSTEM did not converge for energy
   **   ~~~   ** Check values should be zero. Most Recent values listed first.
   **   ~~~   ** Demand-to-Supply interface energy check value iteration history trace: 1025.017198,1025.017198,1025.017198,1025.017198,1025.017198,1025.017198,1025.017198,1025.017198,1025.017198,1025.017198,
   **   ~~~   ** Supply-to-demand interface deck 1 energy check value iteration history trace: 1892.139984,1892.139984,1892.139984,1892.139984,1892.139984,1892.139984,1892.139984,1892.139984,1892.139984,1892.139984,
   ** Warning ** SimHVAC: Maximum iterations (20) exceeded for all HVAC loops, at ANNUAL, 04/06 09:00 - 09:02
   **   ~~~   ** The solution for one or more of the Air Loop HVAC systems did not appear to converge
   **   ~~~   ** Air System Named = CENTRAL SYSTEM did not converge for mass flow rate
   **   ~~~   ** Check values should be zero. Most Recent values listed first.
   **   ~~~   ** Demand-to-Supply interface mass flow rate check value iteration history trace: 5.352057E-002,5.352057E-002,5.352057E-002,5.352057E-002,5.352057E-002,5.352057E-002,5.352057E-002,5.352057E-002,5.352057E-002,5.352057E-002,
   **   ~~~   ** Supply-to-demand interface deck 1 mass flow rate check value iteration history trace: 5.352057E-002,5.352057E-002,5.352057E-002,5.352057E-002,5.352057E-002,5.352057E-002,5.352057E-002,5.352057E-002,5.352057E-002,5.352057E-002,
   **   ~~~   ** Air System Named = CENTRAL SYSTEM did not converge for energy
   **   ~~~   ** Check values should be zero. Most Recent values listed first.
   **   ~~~   ** Demand-to-Supply interface energy check value iteration history trace: 1057.683185,1057.683185,1057.683185,1057.683185,1057.683185,1057.683185,1057.683184,1057.683184,1057.683184,1057.683184,
   **   ~~~   ** Supply-to-demand interface deck 1 energy check value iteration history trace: 1980.781977,1980.781977,1980.781977,1980.781977,1980.781977,1980.781977,1980.781977,1980.781977,1980.781977,1980.781977,
   ** Warning ** SimHVAC: Maximum iterations (20) exceeded for all HVAC loops, at ANNUAL, 05/02 09:40 - 09:45
   **   ~~~   ** The solution for one or more of the Air Loop HVAC systems did not appear to converge
   **   ~~~   ** Air System Named = CENTRAL SYSTEM did not converge for mass flow rate
   **   ~~~   ** Check values should be zero. Most Recent values listed first.
   **   ~~~   ** Demand-to-Supply interface mass flow rate check value iteration history trace: 4.705450E-002,4.705450E-002,4.705450E-002,4.705450E-002,4.705450E-002,4.705450E-002,4.705450E-002,4.705450E-002,4.705450E-002,4.705450E-002,
   **   ~~~   ** Supply-to-demand interface deck 1 mass flow rate check value iteration history trace: 4.705450E-002,4.705450E-002,4.705450E-002,4.705450E-002,4.705450E-002,4.705450E-002,4.705450E-002,4.705450E-002,4.705450E-002,4.705450E-002,
   **   ~~~   ** Air System Named = CENTRAL SYSTEM did not converge for energy
   **   ~~~   ** Check values should be zero. Most Recent values listed first.
   **   ~~~   ** Demand-to-Supply interface energy check value iteration history trace: 924.475310,924.475310,924.475310,924.475310,924.475310,924.475310,924.475310,924.475310,924.475310,924.475310,
   **   ~~~   ** Supply-to-demand interface deck 1 energy check value iteration history trace: 1842.611114,1842.611114,1842.611114,1842.611114,1842.611114,1842.611114,1842.611114,1842.611114,1842.611114,1842.611114,
   ** Warning ** SimHVAC: Maximum iterations (20) exceeded for all HVAC loops, at ANNUAL, 05/30 00:45 - 01:00
   **   ~~~   ** The solution for one or more of the Air Loop HVAC systems did not appear to converge
   **   ~~~   ** Air System Named = CENTRAL SYSTEM did not converge for mass flow rate
   **   ~~~   ** Check values should be zero. Most Recent values listed first.
   **   ~~~   ** Demand-to-Supply interface mass flow rate check value iteration history trace: 5.809924E-002,5.809924E-002,5.809924E-002,5.809924E-002,5.809924E-002,5.809924E-002,5.809924E-002,5.809924E-002,5.809924E-002,5.809924E-002,
   **   ~~~   ** Supply-to-demand interface deck 1 mass flow rate check value iteration history trace: 5.809924E-002,5.809924E-002,5.809924E-002,5.809924E-002,5.809924E-002,5.809924E-002,5.809924E-002,5.809924E-002,5.809924E-002,5.809924E-002,
   **   ~~~   ** Air System Named = CENTRAL SYSTEM did not converge for energy
   **   ~~~   ** Check values should be zero. Most Recent values listed first.
   **   ~~~   ** Demand-to-Supply interface energy check value iteration history trace: 1427.170381,1427.170381,1427.170381,1427.170381,1427.170382,1427.170382,1427.170382,1427.170383,1427.170383,1427.170383,
   **   ~~~   ** Supply-to-demand interface deck 1 energy check value iteration history trace: 578.438560,578.438560,578.438561,578.438561,578.438561,578.438561,578.438561,578.438561,578.438561,578.438562,
   ** Warning ** SimHVAC: Maximum iterations (20) exceeded for all HVAC loops, at ANNUAL, 06/08 08:23 - 08:30
   **   ~~~   ** The solution for one or more of the Air Loop HVAC systems did not appear to converge
   **   ~~~   ** Air System Named = CENTRAL SYSTEM did not converge for mass flow rate
   **   ~~~   ** Check values should be zero. Most Recent values listed first.
   **   ~~~   ** Demand-to-Supply interface mass flow rate check value iteration history trace: 0.139366,0.139366,0.139366,0.139366,0.139366,0.139366,0.139366,0.139366,0.139366,0.139366,
   **   ~~~   ** Supply-to-demand interface deck 1 mass flow rate check value iteration history trace: 0.139366,0.139366,0.139366,0.139366,0.139366,0.139366,0.139366,0.139366,0.139366,0.139366,
   **   ~~~   ** Air System Named = CENTRAL SYSTEM did not converge for energy
   **   ~~~   ** Check values should be zero. Most Recent values listed first.
   **   ~~~   ** Demand-to-Supply interface energy check value iteration history trace: 3303.312747,3303.312748,3303.312749,3303.312750,3303.312751,3303.312751,3303.312752,3303.312753,3303.312754,3303.312755,
   **   ~~~   ** Supply-to-demand interface deck 1 energy check value iteration history trace: 1593.995514,1593.995514,1593.995515,1593.995515,1593.995515,1593.995516,1593.995516,1593.995517,1593.995517,1593.995517,
   ************* Simulation Error Summary *************
   ** Warning ** The following Report Variables were requested but not generated -- check.rdd file
   **   ~~~   ** Either the IDF did not contain these elements, the variable name is misspelled,
   **   ~~~   ** or the requested variable is an advanced output which requires Output : Diagnostics, DisplayAdvancedReportVariables;
   ************* Key=*, VarName=BASEBOARD TOTAL HEATING ENERGY, Frequency=
   ************* Key=*, VarName=WATER HEATER NATURALGAS ENERGY, Frequency=
   ************* Key=*, VarName=COOLING COIL TOTAL HEATING ENERGY, Frequency=
   ************* There are 34 unused schedules in input.
   ************* There are 388 unused week schedules in input.
   ************* There are 396 unused day schedules in input.
   ************* Use Output:Diagnostics,DisplayUnusedSchedules; to see them.
   *************
   ************* ===== Recurring Error Summary =====
   ************* The following recurring error messages occurred.
   *************
   *************  ** Warning ** "TOTAL HOT WATER LOAD" - Target water temperature should be less than or equal to the hot water temperature error continues...
   *************  **   ~~~   **   This error occurred 105747 total times;
   *************  **   ~~~   **   during Warmup 0 times;
   *************  **   ~~~   **   during Sizing 0 times.
   *************  **   ~~~   **   Max=10.325054  Min=3.951402E-003
   *************
   *************  ** Warning ** SimHVAC: Exceeding Maximum iterations for all HVAC loops, during ANNUAL continues
   *************  **   ~~~   **   This error occurred 13 total times;
   *************  **   ~~~   **   during Warmup 0 times;
   *************  **   ~~~   **   during Sizing 0 times.
   *************
   *************
   ************* ===== Final Error Summary =====
   ************* The following error categories occurred.  Consider correcting or noting.
   ************* Nominally Unused Constructions
   ************* ..The nominally unused constructions warning is provided to alert you to potential conditions that can cause
   ************* ..extra time during simulation. Each construction is calculated by the algorithm indicated in the HeatBalanceAlgorithm
   ************* ..object. You may remove the constructions indicated (when you use the DisplayExtraWarnings option).
   *************
   ************* EnergyPlus Warmup Error Summary. During Warmup: 1 Warning; 0 Severe Errors.
   ************* EnergyPlus Sizing Error Summary. During Sizing: 4 Warning; 0 Severe Errors.
   ************* EnergyPlus Completed Successfully-- 105791 Warning; 0 Severe Errors; Elapsed Time=00hr 01min 28.59sec
