Program Version,EnergyPlus, Version 22.2.0-c249759bad, YMD=2023.09.01 14:56,
   ************* Beginning Zone Sizing Calculations
   ** Warning ** ProcessScheduleInput: Schedule:Constant="ALWAYS ON DISCRETE", Schedule Type Limits Name="ONOFF" not found -- will not be validated
   ** Warning ** Foundation:Kiva="KIVA FOUNDATION", no Interior Horizontal Insulation Material Name defined
   **   ~~~   ** Interior Horizontal Insulation Depth will not be used.
   ** Warning ** CheckUsedConstructions: There are 15 nominally unused constructions in input.
   **   ~~~   ** Each Unused construction is shown.
   ************* Construction=INTERIOR FLOOR
   ************* Construction=INTERIOR WINDOW
   ************* Construction=EXTERIOR DOOR
   ************* Construction=INTERIOR DOOR
   ************* Construction=GABLE CONSTRUCTION
   ************* Construction=CRAWL_FLOOR
   ************* Construction=INSULATED PIPE
   ************* Construction=PLAIN PIPE
   ************* Construction=TDD PIPE
   ************* Construction=TDD DOME
   ************* Construction=TDD DIFFUSER
   ************* Construction=CRAWL WALL
   ************* Construction=CEILING-FLOOR-LAYER
   ************* Construction=SLAB CONSTRUCTION W FULL R10 INSULATION
   ************* Construction=SLAB CONSTRUCTION W FULL R5 INSULATION
   ** Warning ** GetDXCoils: Coil:Heating:DX:SingleSpeed="DX_HEATING_COIL" curve values
   **   ~~~   ** ... Defrost Energy Input Ratio Function of Temperature Curve Name = DEFROSTEIR output is not equal to 1.0 (+ or - 10%) at rated conditions.
   **   ~~~   ** ... Curve output at rated conditions = 0.152
   ************* Beginning System Sizing Calculations
   ************* Beginning Plant Sizing Calculations
   ** Warning ** SizeDXCoil Coil:Cooling:DX:SingleSpeed DX_COOLING_COIL
   **   ~~~   ** ...Gross Rated Total Cooling Capacity [W] will be limited by the maximum rated volume flow per rated total capacity ratio.
   **   ~~~   ** ...DX coil volume flow rate ( m3/s ) = 0.416833
   **   ~~~   ** ...Requested capacity ( W ) = 6649.797
   **   ~~~   ** ...Requested flow/capacity ratio ( m3/s/W ) = 6.268E-005
   **   ~~~   ** ...Maximum flow/capacity ratio ( m3/s/W ) = 6.041E-005
   **   ~~~   ** ...Adjusted capacity ( W ) = 6900.072
   ** Warning ** Coil:WaterHeating:AirToWaterHeatPump:Wrapped "HEAT PUMP WATER HEATER EVAPORATOR": Rated air volume flow rate per watt of rated total water heating capacity is out of range
   **   ~~~   ** Min Rated Vol Flow Per Watt=[4.027E-005], Rated Vol Flow Per Watt=[1.386E-004], Max Rated Vol Flow Per Watt=[8.056E-005]. See Input-Output Reference Manual for valid range.
   ** Warning ** Water heater = WATER HEATER TANK:  Recovery Efficiency and Energy Factor could not be calculated during the test for standard ratings
   **   ~~~   ** Setpoint was never recovered and/or heater never turned on
   ** Warning ** Check input. Pump nominal power or motor efficiency is set to 0, for pump=MAINS PRESSURE
   ** Warning ** Output:Meter: invalid Key Name="ELECTRIC_RANGE:INTERIOREQUIPMENT:ELECTRICITY" - not found.
   ** Warning ** Output:Meter: invalid Key Name="ELECTRIC_DRYER:INTERIOREQUIPMENT:ELECTRICITY" - not found.
   ** Warning ** Output:Meter: invalid Key Name="HEATRECOVERY:ELECTRICITY" - not found.
   ** Warning ** Output:Meter: invalid Key Name="HEATING:NATURALGAS" - not found.
   ** Warning ** Output:Meter: invalid Key Name="WATERSYSTEMS:NATURALGAS" - not found.
   ** Warning ** Output:Meter: invalid Key Name="PROPANE:FACILITY" - not found.
   ** Warning ** Output:Meter: invalid Key Name="HEATING:PROPANE" - not found.
   ************* Testing Individual Branch Integrity
   ************* All Branches passed integrity testing
   ************* Testing Individual Supply Air Path Integrity
   ************* All Supply Air Paths passed integrity testing
   ************* Testing Individual Return Air Path Integrity
   ************* All Return Air Paths passed integrity testing
   ************* No node connection errors were found.
   ************* Beginning Simulation
   ** Warning ** AirflowNetwork::Solver::validate_distribution: Heat pump water heater is simulated along with an AirflowNetwork but is not included in the AirflowNetwork.
   ** Warning ** CalcEquipmentFlowRates: "TOTAL HOT WATER LOAD" - Target water temperature is greater than the hot water temperature by (1.66 C)
   **   ~~~   **  Environment=EXTREME_WINTER, at Simulation time=12/15 06:00 - 06:15
   **   ~~~   ** ...target water temperature     = 53.33 C
   **   ~~~   ** ...hot water temperature        = 51.67 C
   **   ~~~   ** ...Target water temperature should be less than or equal to the hot water temperature. Verify temperature setpoints and schedules.
   ** Warning ** SimHVAC: Maximum iterations (20) exceeded for all HVAC loops, at ANNUAL, 01/29 19:15 - 19:30
   **   ~~~   ** The solution for one or more of the Air Loop HVAC systems did not appear to converge
   **   ~~~   ** Air System Named = CENTRAL SYSTEM did not converge for mass flow rate
   **   ~~~   ** Check values should be zero. Most Recent values listed first.
   **   ~~~   ** Demand-to-Supply interface mass flow rate check value iteration history trace: 0.119069,0.119069,0.119069,0.119069,0.119069,0.119069,0.119069,0.119069,0.119069,0.119069,
   **   ~~~   ** Supply-to-demand interface deck 1 mass flow rate check value iteration history trace: 0.119069,0.119069,0.119069,0.119069,0.119069,0.119069,0.119069,0.119069,0.119069,0.119069,
   **   ~~~   ** Air System Named = CENTRAL SYSTEM did not converge for energy
   **   ~~~   ** Check values should be zero. Most Recent values listed first.
   **   ~~~   ** Demand-to-Supply interface energy check value iteration history trace: 2316.428505,2316.428505,2316.428505,2316.428505,2316.428504,2316.428504,2316.428504,2316.428504,2316.428504,2316.428504,
   **   ~~~   ** Supply-to-demand interface deck 1 energy check value iteration history trace: 3569.950870,3569.950870,3569.950870,3569.950869,3569.950869,3569.950869,3569.950869,3569.950869,3569.950868,3569.950868,
   ** Warning ** SimHVAC: Maximum iterations (20) exceeded for all HVAC loops, at ANNUAL, 02/15 16:15 - 16:20
   **   ~~~   ** The solution for one or more of the Air Loop HVAC systems did not appear to converge
   **   ~~~   ** Air System Named = CENTRAL SYSTEM did not converge for mass flow rate
   **   ~~~   ** Check values should be zero. Most Recent values listed first.
   **   ~~~   ** Demand-to-Supply interface mass flow rate check value iteration history trace: 9.440217E-002,9.440217E-002,9.440217E-002,9.440217E-002,9.440217E-002,9.440217E-002,9.440217E-002,9.440217E-002,9.440217E-002,9.440217E-002,
   **   ~~~   ** Supply-to-demand interface deck 1 mass flow rate check value iteration history trace: 9.440217E-002,9.440217E-002,9.440217E-002,9.440217E-002,9.440217E-002,9.440217E-002,9.440217E-002,9.440217E-002,9.440217E-002,9.440217E-002,
   **   ~~~   ** Air System Named = CENTRAL SYSTEM did not converge for energy
   **   ~~~   ** Check values should be zero. Most Recent values listed first.
   **   ~~~   ** Demand-to-Supply interface energy check value iteration history trace: 1864.700181,1864.700181,1864.700181,1864.700181,1864.700181,1864.700180,1864.700180,1864.700180,1864.700180,1864.700180,
   **   ~~~   ** Supply-to-demand interface deck 1 energy check value iteration history trace: 2871.821264,2871.821264,2871.821264,2871.821264,2871.821264,2871.821264,2871.821263,2871.821263,2871.821263,2871.821263,
   ** Warning ** SimHVAC: Maximum iterations (20) exceeded for all HVAC loops, at ANNUAL, 02/25 11:30 - 11:34
   **   ~~~   ** The solution for one or more of the Air Loop HVAC systems did not appear to converge
   **   ~~~   ** Air System Named = CENTRAL SYSTEM did not converge for mass flow rate
   **   ~~~   ** Check values should be zero. Most Recent values listed first.
   **   ~~~   ** Demand-to-Supply interface mass flow rate check value iteration history trace: 5.677217E-002,5.677217E-002,5.677217E-002,5.677217E-002,5.677217E-002,5.677217E-002,5.677217E-002,5.677217E-002,5.677217E-002,5.677217E-002,
   **   ~~~   ** Supply-to-demand interface deck 1 mass flow rate check value iteration history trace: 5.677217E-002,5.677217E-002,5.677217E-002,5.677217E-002,5.677217E-002,5.677217E-002,5.677217E-002,5.677217E-002,5.677217E-002,5.677217E-002,
   **   ~~~   ** Air System Named = CENTRAL SYSTEM did not converge for energy
   **   ~~~   ** Check values should be zero. Most Recent values listed first.
   **   ~~~   ** Demand-to-Supply interface energy check value iteration history trace: 1123.109232,1123.109232,1123.109232,1123.109232,1123.109232,1123.109232,1123.109232,1123.109232,1123.109232,1123.109231,
   **   ~~~   ** Supply-to-demand interface deck 1 energy check value iteration history trace: 2032.721752,2032.721752,2032.721752,2032.721752,2032.721752,2032.721752,2032.721751,2032.721751,2032.721751,2032.721751,
   ** Warning ** SimHVAC: Maximum iterations (20) exceeded for all HVAC loops, at ANNUAL, 02/26 21:15 - 21:22
   **   ~~~   ** The solution for one or more of the Air Loop HVAC systems did not appear to converge
   **   ~~~   ** Air System Named = CENTRAL SYSTEM did not converge for mass flow rate
   **   ~~~   ** Check values should be zero. Most Recent values listed first.
   **   ~~~   ** Demand-to-Supply interface mass flow rate check value iteration history trace: 6.011665E-002,6.011665E-002,6.011665E-002,6.011665E-002,6.011665E-002,6.011665E-002,6.011665E-002,6.011665E-002,6.011665E-002,6.011665E-002,
   **   ~~~   ** Supply-to-demand interface deck 1 mass flow rate check value iteration history trace: 6.011665E-002,6.011665E-002,6.011665E-002,6.011665E-002,6.011665E-002,6.011665E-002,6.011665E-002,6.011665E-002,6.011665E-002,6.011665E-002,
   **   ~~~   ** Air System Named = CENTRAL SYSTEM did not converge for energy
   **   ~~~   ** Check values should be zero. Most Recent values listed first.
   **   ~~~   ** Demand-to-Supply interface energy check value iteration history trace: 1191.026142,1191.026141,1191.026141,1191.026141,1191.026141,1191.026141,1191.026141,1191.026141,1191.026141,1191.026141,
   **   ~~~   ** Supply-to-demand interface deck 1 energy check value iteration history trace: 2183.829994,2183.829994,2183.829994,2183.829994,2183.829994,2183.829994,2183.829994,2183.829994,2183.829994,2183.829993,
   **   ~~~   ** Node named ZONE INLET NODE shows oscillating temperatures across iterations with a repeated value of 36.151426
   **   ~~~   ** Node named ZONE INLET NODE temperature [C] iteration history trace (most recent first): 36.151426,36.151426,36.151426,36.151425,36.151425,36.151425,36.151425,36.151424,36.151424,36.151424,
   ** Warning ** SimHVAC: Maximum iterations (20) exceeded for all HVAC loops, at ANNUAL, 02/26 21:45 - 21:52
   **   ~~~   ** The solution for one or more of the Air Loop HVAC systems did not appear to converge
   **   ~~~   ** Air System Named = CENTRAL SYSTEM did not converge for mass flow rate
   **   ~~~   ** Check values should be zero. Most Recent values listed first.
   **   ~~~   ** Demand-to-Supply interface mass flow rate check value iteration history trace: 5.748162E-002,5.748162E-002,5.748162E-002,5.748162E-002,5.748162E-002,5.748162E-002,5.748162E-002,5.748162E-002,5.748162E-002,5.748162E-002,
   **   ~~~   ** Supply-to-demand interface deck 1 mass flow rate check value iteration history trace: 5.748162E-002,5.748162E-002,5.748162E-002,5.748162E-002,5.748162E-002,5.748162E-002,5.748162E-002,5.748162E-002,5.748162E-002,5.748162E-002,
   **   ~~~   ** Air System Named = CENTRAL SYSTEM did not converge for energy
   **   ~~~   ** Check values should be zero. Most Recent values listed first.
   **   ~~~   ** Demand-to-Supply interface energy check value iteration history trace: 1138.762326,1138.762326,1138.762326,1138.762326,1138.762326,1138.762326,1138.762326,1138.762326,1138.762326,1138.762326,
   **   ~~~   ** Supply-to-demand interface deck 1 energy check value iteration history trace: 2088.036983,2088.036983,2088.036983,2088.036983,2088.036983,2088.036983,2088.036983,2088.036982,2088.036982,2088.036982,
   **   ~~~   ** Node named ZONE INLET NODE shows oscillating temperatures across iterations with a repeated value of 36.150190
   **   ~~~   ** Node named ZONE INLET NODE temperature [C] iteration history trace (most recent first): 36.150190,36.150190,36.150190,36.150189,36.150189,36.150189,36.150189,36.150188,36.150188,36.150188,
   ** Warning ** SimHVAC: Maximum iterations (20) exceeded for all HVAC loops, at ANNUAL, 03/08 20:30 - 20:45
   **   ~~~   ** The solution for one or more of the Air Loop HVAC systems did not appear to converge
   **   ~~~   ** Air System Named = CENTRAL SYSTEM did not converge for mass flow rate
   **   ~~~   ** Check values should be zero. Most Recent values listed first.
   **   ~~~   ** Demand-to-Supply interface mass flow rate check value iteration history trace: 8.083349E-002,8.083349E-002,8.083349E-002,8.083349E-002,8.083349E-002,8.083349E-002,8.083349E-002,8.083349E-002,8.083349E-002,8.083349E-002,
   **   ~~~   ** Supply-to-demand interface deck 1 mass flow rate check value iteration history trace: 8.083349E-002,8.083349E-002,8.083349E-002,8.083349E-002,8.083349E-002,8.083349E-002,8.083349E-002,8.083349E-002,8.083349E-002,8.083349E-002,
   **   ~~~   ** Air System Named = CENTRAL SYSTEM did not converge for energy
   **   ~~~   ** Check values should be zero. Most Recent values listed first.
   **   ~~~   ** Demand-to-Supply interface energy check value iteration history trace: 1571.085318,1571.085318,1571.085318,1571.085317,1571.085317,1571.085317,1571.085317,1571.085317,1571.085317,1571.085317,
   **   ~~~   ** Supply-to-demand interface deck 1 energy check value iteration history trace: 2758.775093,2758.775093,2758.775093,2758.775093,2758.775092,2758.775092,2758.775092,2758.775092,2758.775092,2758.775092,
   ** Warning ** SimHVAC: Maximum iterations (20) exceeded for all HVAC loops, at ANNUAL, 03/12 10:30 - 10:38
   **   ~~~   ** The solution for one or more of the Air Loop HVAC systems did not appear to converge
   **   ~~~   ** Air System Named = CENTRAL SYSTEM did not converge for mass flow rate
   **   ~~~   ** Check values should be zero. Most Recent values listed first.
   **   ~~~   ** Demand-to-Supply interface mass flow rate check value iteration history trace: 8.037511E-002,8.037511E-002,8.037511E-002,8.037511E-002,8.037511E-002,8.037511E-002,8.037511E-002,8.037511E-002,8.037511E-002,8.037511E-002,
   **   ~~~   ** Supply-to-demand interface deck 1 mass flow rate check value iteration history trace: 8.037511E-002,8.037511E-002,8.037511E-002,8.037511E-002,8.037511E-002,8.037511E-002,8.037511E-002,8.037511E-002,8.037511E-002,8.037511E-002,
   **   ~~~   ** Air System Named = CENTRAL SYSTEM did not converge for energy
   **   ~~~   ** Check values should be zero. Most Recent values listed first.
   **   ~~~   ** Demand-to-Supply interface energy check value iteration history trace: 1586.299401,1586.299401,1586.299400,1586.299400,1586.299400,1586.299400,1586.299399,1586.299399,1586.299399,1586.299399,
   **   ~~~   ** Supply-to-demand interface deck 1 energy check value iteration history trace: 2859.546362,2859.546362,2859.546361,2859.546361,2859.546360,2859.546360,2859.546359,2859.546359,2859.546359,2859.546358,
   ** Warning ** SimHVAC: Maximum iterations (20) exceeded for all HVAC loops, at ANNUAL, 04/11 07:45 - 07:48
   **   ~~~   ** The solution for one or more of the Air Loop HVAC systems did not appear to converge
   **   ~~~   ** Air System Named = CENTRAL SYSTEM did not converge for mass flow rate
   **   ~~~   ** Check values should be zero. Most Recent values listed first.
   **   ~~~   ** Demand-to-Supply interface mass flow rate check value iteration history trace: 7.945165E-002,7.945165E-002,7.945165E-002,7.945165E-002,7.945165E-002,7.945165E-002,7.945165E-002,7.945165E-002,7.945165E-002,7.945165E-002,
   **   ~~~   ** Supply-to-demand interface deck 1 mass flow rate check value iteration history trace: 7.945165E-002,7.945165E-002,7.945165E-002,7.945165E-002,7.945165E-002,7.945165E-002,7.945165E-002,7.945165E-002,7.945165E-002,7.945165E-002,
   **   ~~~   ** Air System Named = CENTRAL SYSTEM did not converge for energy
   **   ~~~   ** Check values should be zero. Most Recent values listed first.
   **   ~~~   ** Demand-to-Supply interface energy check value iteration history trace: 1574.425027,1574.425027,1574.425027,1574.425027,1574.425026,1574.425026,1574.425026,1574.425026,1574.425026,1574.425026,
   **   ~~~   ** Supply-to-demand interface deck 1 energy check value iteration history trace: 2732.814285,2732.814285,2732.814285,2732.814285,2732.814284,2732.814284,2732.814284,2732.814284,2732.814284,2732.814284,
   ** Warning ** SimHVAC: Maximum iterations (20) exceeded for all HVAC loops, at ANNUAL, 04/12 07:15 - 07:30
   **   ~~~   ** The solution for one or more of the Air Loop HVAC systems did not appear to converge
   **   ~~~   ** Air System Named = CENTRAL SYSTEM did not converge for mass flow rate
   **   ~~~   ** Check values should be zero. Most Recent values listed first.
   **   ~~~   ** Demand-to-Supply interface mass flow rate check value iteration history trace: 8.153567E-002,8.153567E-002,8.153567E-002,8.153567E-002,8.153567E-002,8.153567E-002,8.153567E-002,8.153567E-002,8.153567E-002,8.153567E-002,
   **   ~~~   ** Supply-to-demand interface deck 1 mass flow rate check value iteration history trace: 8.153567E-002,8.153567E-002,8.153567E-002,8.153567E-002,8.153567E-002,8.153567E-002,8.153567E-002,8.153567E-002,8.153567E-002,8.153567E-002,
   **   ~~~   ** Air System Named = CENTRAL SYSTEM did not converge for energy
   **   ~~~   ** Check values should be zero. Most Recent values listed first.
   **   ~~~   ** Demand-to-Supply interface energy check value iteration history trace: 1615.690578,1615.690578,1615.690578,1615.690578,1615.690578,1615.690578,1615.690578,1615.690578,1615.690578,1615.690578,
   **   ~~~   ** Supply-to-demand interface deck 1 energy check value iteration history trace: 2859.306920,2859.306920,2859.306920,2859.306920,2859.306920,2859.306920,2859.306919,2859.306919,2859.306919,2859.306919,
   ** Warning ** SimHVAC: Maximum iterations (20) exceeded for all HVAC loops, at ANNUAL, 05/24 06:30 - 06:45
   **   ~~~   ** The solution for one or more of the Air Loop HVAC systems did not appear to converge
   **   ~~~   ** Air System Named = CENTRAL SYSTEM did not converge for mass flow rate
   **   ~~~   ** Check values should be zero. Most Recent values listed first.
   **   ~~~   ** Demand-to-Supply interface mass flow rate check value iteration history trace: 0.166803,0.166803,0.166803,0.166803,0.166803,0.166803,0.166803,0.166803,0.166803,0.166803,
   **   ~~~   ** Supply-to-demand interface deck 1 mass flow rate check value iteration history trace: 0.166803,0.166803,0.166803,0.166803,0.166803,0.166803,0.166803,0.166803,0.166803,0.166803,
   **   ~~~   ** Air System Named = CENTRAL SYSTEM did not converge for energy
   **   ~~~   ** Check values should be zero. Most Recent values listed first.
   **   ~~~   ** Demand-to-Supply interface energy check value iteration history trace: 4005.240976,4005.240978,4005.240979,4005.240981,4005.240983,4005.240984,4005.240986,4005.240988,4005.240989,4005.240991,
   **   ~~~   ** Supply-to-demand interface deck 1 energy check value iteration history trace: 2233.174657,2233.174658,2233.174659,2233.174660,2233.174661,2233.174662,2233.174663,2233.174664,2233.174665,2233.174666,
   ** Warning ** SimHVAC: Maximum iterations (20) exceeded for all HVAC loops, at ANNUAL, 11/12 08:30 - 08:38
   **   ~~~   ** The solution for one or more of the Air Loop HVAC systems did not appear to converge
   **   ~~~   ** Air System Named = CENTRAL SYSTEM did not converge for mass flow rate
   **   ~~~   ** Check values should be zero. Most Recent values listed first.
   **   ~~~   ** Demand-to-Supply interface mass flow rate check value iteration history trace: 5.884186E-002,5.884186E-002,5.884186E-002,5.884186E-002,5.884186E-002,5.884186E-002,5.884186E-002,5.884186E-002,5.884186E-002,5.884186E-002,
   **   ~~~   ** Supply-to-demand interface deck 1 mass flow rate check value iteration history trace: 5.884186E-002,5.884186E-002,5.884186E-002,5.884186E-002,5.884186E-002,5.884186E-002,5.884186E-002,5.884186E-002,5.884186E-002,5.884186E-002,
   **   ~~~   ** Air System Named = CENTRAL SYSTEM did not converge for energy
   **   ~~~   ** Check values should be zero. Most Recent values listed first.
   **   ~~~   ** Demand-to-Supply interface energy check value iteration history trace: 1166.178818,1166.178818,1166.178818,1166.178818,1166.178818,1166.178818,1166.178818,1166.178818,1166.178818,1166.178818,
   **   ~~~   ** Supply-to-demand interface deck 1 energy check value iteration history trace: 2164.997205,2164.997205,2164.997205,2164.997205,2164.997205,2164.997205,2164.997205,2164.997205,2164.997205,2164.997204,
   ************* Simulation Error Summary *************
   ** Warning ** The following Report Variables were requested but not generated -- check.rdd file
   **   ~~~   ** Either the IDF did not contain these elements, the variable name is misspelled,
   **   ~~~   ** or the requested variable is an advanced output which requires Output : Diagnostics, DisplayAdvancedReportVariables;
   ************* Key=*, VarName=BASEBOARD TOTAL HEATING ENERGY, Frequency=
   ************* Key=*, VarName=WATER HEATER NATURALGAS ENERGY, Frequency=
   ************* Key=*, VarName=COOLING COIL TOTAL HEATING ENERGY, Frequency=
   ************* There are 34 unused schedules in input.
   ************* There are 388 unused week schedules in input.
   ************* There are 396 unused day schedules in input.
   ************* Use Output:Diagnostics,DisplayUnusedSchedules; to see them.
   *************
   ************* ===== Recurring Error Summary =====
   ************* The following recurring error messages occurred.
   *************
   *************  ** Warning ** "TOTAL HOT WATER LOAD" - Target water temperature should be less than or equal to the hot water temperature error continues...
   *************  **   ~~~   **   This error occurred 83739 total times;
   *************  **   ~~~   **   during Warmup 0 times;
   *************  **   ~~~   **   during Sizing 0 times.
   *************  **   ~~~   **   Max=10.092067  Min=4.001258E-004
   *************
   *************
   ************* ===== Final Error Summary =====
   ************* The following error categories occurred.  Consider correcting or noting.
   ************* Nominally Unused Constructions
   ************* ..The nominally unused constructions warning is provided to alert you to potential conditions that can cause
   ************* ..extra time during simulation. Each construction is calculated by the algorithm indicated in the HeatBalanceAlgorithm
   ************* ..object. You may remove the constructions indicated (when you use the DisplayExtraWarnings option).
   *************
   ************* EnergyPlus Warmup Error Summary. During Warmup: 1 Warning; 0 Severe Errors.
   ************* EnergyPlus Sizing Error Summary. During Sizing: 4 Warning; 0 Severe Errors.
   ************* EnergyPlus Completed Successfully-- 83768 Warning; 0 Severe Errors; Elapsed Time=00hr 05min 15.45sec
