Program Version,EnergyPlus, Version 22.2.0-c249759bad, YMD=2024.09.13 10:36,
   ************* Beginning Zone Sizing Calculations
   ** Warning ** Foundation:Kiva="KIVA FOUNDATION", no Interior Horizontal Insulation Material Name defined
   **   ~~~   ** Interior Horizontal Insulation Depth will not be used.
   ** Warning ** CheckUsedConstructions: There are 16 nominally unused constructions in input.
   **   ~~~   ** Each Unused construction is shown.
   ************* Construction=INTERIOR FLOOR
   ************* Construction=INTERIOR WINDOW
   ************* Construction=EXTERIOR DOOR
   ************* Construction=INTERIOR DOOR
   ************* Construction=GABLE CONSTRUCTION
   ************* Construction=CRAWL_FLOOR
   ************* Construction=INSULATED PIPE
   ************* Construction=PLAIN PIPE
   ************* Construction=TDD PIPE
   ************* Construction=TDD DOME
   ************* Construction=TDD DIFFUSER
   ************* Construction=CRAWL WALL
   ************* Construction=INTERIORFURNISHINGS
   ************* Construction=CEILING-FLOOR-LAYER
   ************* Construction=SLAB CONSTRUCTION W FULL R10 INSULATION
   ************* Construction=SLAB CONSTRUCTION W FULL R5 INSULATION
   ************* Beginning System Sizing Calculations
   ** Warning ** ManageSizing: For a plant sizing run, there must be at least 1 Sizing:Plant object input. SimulationControl Plant Sizing option ignored.
   ************* SizeHVACSingleDuct: Potential issue with equipment sizing for AirTerminal:SingleDuct:ConstantVolume:NoReheat = "ZONEDIRECTAIR".
   **   ~~~   ** User-Specified Maximum Air Flow Rate of 0.58521 [m3/s]
   **   ~~~   ** differs from Design Size Maximum Air Flow Rate of 0.66069 [m3/s]
   **   ~~~   ** This may, or may not, indicate mismatched component sizes.
   **   ~~~   ** Verify that the value entered is intended and is consistent with other components.
   ** Warning ** GetDXCoils: Coil:Heating:DX:MultiSpeed="DX_HEATING_COIL" curve values
   **   ~~~   ** ... Defrost Energy Input Ratio Function of Temperature Curve Name = DEFROSTEIR output is not equal to 1.0 (+ or - 10%) at rated conditions.
   **   ~~~   ** ... Curve output at rated conditions = 0.152
   ** Warning ** AirLoopHVAC:UnitaryHeatPump:AirToAir:MultiSpeed - air flow rate = 0.5852148 in fan object FAN is less than the MSHP system air flow rate when cooling is required (0.7022578).
   **   ~~~   **  The MSHP system flow rate when cooling is required is reset to the fan flow rate and the simulation continues.
   **   ~~~   **  Occurs in AirLoopHVAC:UnitaryHeatPump:AirToAir:MultiSpeed = MS HEAT PUMP
   ** Warning ** AirLoopHVAC:UnitaryHeatPump:AirToAir:MultiSpeed - air flow rate = 0.5852148 in fan object FAN is less than the MSHP system air flow rate when heating is required (0.7022578).
   **   ~~~   **  The MSHP system flow rate when heating is required is reset to the fan flow rate and the simulation continues.
   **   ~~~   **  Occurs in AirLoopHVAC:UnitaryHeatPump:AirToAir:MultiSpeed = MS HEAT PUMP
   ************* SizeFan: : Potential issue with equipment sizing for Fan:OnOff FAN
   **   ~~~   ** User-Specified Maximum Flow Rate [m3/s] = 0.58521
   **   ~~~   ** differs from Design Size Maximum Flow Rate [m3/s] = 0.66069
   **   ~~~   ** This may, or may not, indicate mismatched component sizes.
   **   ~~~   ** Verify that the value entered is intended and is consistent with other components.
   ************* SizeDXCoil: Potential issue with equipment sizing for Coil:Cooling:DX:MultiSpeed DX_COOLING_COIL
   **   ~~~   ** User-Specified Speed 3 Gross Rated Sensible Heat Ratio [m3/s] = 0.58521
   **   ~~~   ** differs from Design Size Speed 3 Gross Rated Sensible Heat Ratio [m3/s] = 0.49551
   **   ~~~   ** This may, or may not, indicate mismatched component sizes.
   **   ~~~   ** Verify that the value entered is intended and is consistent with other components.
   ************* SizeDXCoil: Potential issue with equipment sizing for Coil:Cooling:DX:MultiSpeed DX_COOLING_COIL
   **   ~~~   ** User-Specified Speed 2 Gross Rated Cooling COP [m3/s] = 0.52669
   **   ~~~   ** differs from Design Size Speed 2 Gross Rated Cooling COP [m3/s] = 0.33034
   **   ~~~   ** This may, or may not, indicate mismatched component sizes.
   **   ~~~   ** Verify that the value entered is intended and is consistent with other components.
   ************* SizeDXCoil: Potential issue with equipment sizing for Coil:Cooling:DX:MultiSpeed DX_COOLING_COIL
   **   ~~~   ** User-Specified Speed 1 Rated Air Flow Rate [m3/s] = 0.35113
   **   ~~~   ** differs from Design Size Speed 1 Rated Air Flow Rate [m3/s] = 0.16517
   **   ~~~   ** This may, or may not, indicate mismatched component sizes.
   **   ~~~   ** Verify that the value entered is intended and is consistent with other components.
   ************* SizeDXCoil: Potential issue with equipment sizing for Coil:Cooling:DX:MultiSpeed DX_COOLING_COIL
   **   ~~~   ** User-Specified Speed 2 Evaporative Condenser Air Flow Rate [W] = 13920.87583
   **   ~~~   ** differs from Design Size Speed 2 Evaporative Condenser Air Flow Rate [W] = 12352.67179
   **   ~~~   ** This may, or may not, indicate mismatched component sizes.
   **   ~~~   ** Verify that the value entered is intended and is consistent with other components.
   ************* SizeDXCoil: Potential issue with equipment sizing for Coil:Cooling:DX:MultiSpeed DX_COOLING_COIL
   **   ~~~   ** User-Specified Speed 1 Rated Evaporative Condenser Pump Power Consumption [W] = 9326.98680
   **   ~~~   ** differs from Design Size Speed 1 Rated Evaporative Condenser Pump Power Consumption [W] = 8235.11453
   **   ~~~   ** This may, or may not, indicate mismatched component sizes.
   **   ~~~   ** Verify that the value entered is intended and is consistent with other components.
   ************* SizeDXCoil: Potential issue with equipment sizing for Coil:Cooling:DX:MultiSpeed DX_COOLING_COIL
   **   ~~~   ** User-Specified Speed 1 Gross Rated Total Cooling Capacity [W] = 6821.22915
   **   ~~~   ** differs from Design Size Speed 1 Gross Rated Total Cooling Capacity [W] = 4117.55726
   **   ~~~   ** This may, or may not, indicate mismatched component sizes.
   **   ~~~   ** Verify that the value entered is intended and is consistent with other components.
   ************* SizeDXCoil: Potential issue with equipment sizing for Coil:Cooling:DX:MultiSpeed DX_COOLING_COIL
   **   ~~~   ** User-Specified Speed 2 Rated Sensible Heat Ratio = 0.78000
   **   ~~~   ** differs from Design Size Speed 2 Rated Sensible Heat Ratio = 0.65000
   **   ~~~   ** This may, or may not, indicate mismatched component sizes.
   **   ~~~   ** Verify that the value entered is intended and is consistent with other components.
   ************* SizeDXCoil: Potential issue with equipment sizing for Coil:Cooling:DX:MultiSpeed DX_COOLING_COIL
   **   ~~~   ** User-Specified Speed 1 Rated Sensible Heat Ratio = 0.79500
   **   ~~~   ** differs from Design Size Speed 1 Rated Sensible Heat Ratio = 0.65000
   **   ~~~   ** This may, or may not, indicate mismatched component sizes.
   **   ~~~   ** Verify that the value entered is intended and is consistent with other components.
   ** Warning ** For object = Coil:Cooling:DX:MultiSpeed, name = "DX_COOLING_COIL"
   **   ~~~   ** Calculated outlet air relative humidity greater than 1. The combination of
   **   ~~~   ** rated air volume flow rate, total cooling capacity and sensible heat ratio yields coil exiting
   **   ~~~   ** air conditions above the saturation curve. Possible fixes are to reduce the rated total cooling
   **   ~~~   ** capacity, increase the rated air volume flow rate, or reduce the rated sensible heat ratio for this coil.
   **   ~~~   ** If autosizing, it is recommended that all three of these values be autosized.
   **   ~~~   ** ...Inputs used for calculating cooling coil bypass factor.
   **   ~~~   ** ...Inlet Air Temperature     = 26.67 C
   **   ~~~   ** ...Outlet Air Temperature    = 13.62 C
   **   ~~~   ** ...Inlet Air Humidity Ratio  = 1.118470E-002 kgWater/kgDryAir
   **   ~~~   ** ...Outlet Air Humidity Ratio = 9.834855E-003 kgWater/kgDryAir
   **   ~~~   ** ...Total Cooling Capacity used in calculation = 6821.23 W
   **   ~~~   ** ...Air Mass Flow Rate used in calculation     = 0.406168 kg/s
   **   ~~~   ** ...Air Volume Flow Rate used in calculation   = 0.351129 m3/s
   **   ~~~   **  During Warmup, Environment=EXTREME_WINTER, at Simulation time=02/10 00:00 - 00:05
   **   ~~~   ** CalcCBF: SHR adjusted to achieve valid outlet air properties and the simulation continues.
   **   ~~~   ** CalcCBF: initial SHR = 0.79500
   **   ~~~   ** CalcCBF: adjusted SHR = 0.78754
   ************* SizeDXCoil: Potential issue with equipment sizing for Coil:Heating:DX:MultiSpeed DX_HEATING_COIL
   **   ~~~   ** User-Specified Speed 3 Gross Rated Heating Capacity [m3/s] = 0.58521
   **   ~~~   ** differs from Design Size Speed 3 Gross Rated Heating Capacity [m3/s] = 0.49551
   **   ~~~   ** This may, or may not, indicate mismatched component sizes.
   **   ~~~   ** Verify that the value entered is intended and is consistent with other components.
   ************* SizeDXCoil: Potential issue with equipment sizing for Coil:Heating:DX:MultiSpeed DX_HEATING_COIL
   **   ~~~   ** User-Specified Speed 2 Gross Rated Heating COP [m3/s] = 0.52669
   **   ~~~   ** differs from Design Size Speed 2 Gross Rated Heating COP [m3/s] = 0.33034
   **   ~~~   ** This may, or may not, indicate mismatched component sizes.
   **   ~~~   ** Verify that the value entered is intended and is consistent with other components.
   ************* SizeDXCoil: Potential issue with equipment sizing for Coil:Heating:DX:MultiSpeed DX_HEATING_COIL
   **   ~~~   ** User-Specified Speed 1 Rated Air Flow Rate [m3/s] = 0.35113
   **   ~~~   ** differs from Design Size Speed 1 Rated Air Flow Rate [m3/s] = 0.16517
   **   ~~~   ** This may, or may not, indicate mismatched component sizes.
   **   ~~~   ** Verify that the value entered is intended and is consistent with other components.
   ************* SizeDXCoil: Potential issue with equipment sizing for Coil:Heating:DX:MultiSpeed DX_HEATING_COIL
   **   ~~~   ** User-Specified Speed 1 Gross Rated Heating Capacity [W] = 6534.01951
   **   ~~~   ** differs from Design Size Speed 1 Gross Rated Heating Capacity [W] = 4117.55726
   **   ~~~   ** This may, or may not, indicate mismatched component sizes.
   **   ~~~   ** Verify that the value entered is intended and is consistent with other components.
   ** Warning ** Output:Meter: invalid Key Name="PUMPS:ELECTRICITY" - not found.
   ** Warning ** Output:Meter: invalid Key Name="WATERSYSTEMS:ELECTRICITY" - not found.
   ** Warning ** Output:Meter: invalid Key Name="ELECTRIC_RANGE:INTERIOREQUIPMENT:ELECTRICITY" - not found.
   ** Warning ** Output:Meter: invalid Key Name="ELECTRIC_DRYER:INTERIOREQUIPMENT:ELECTRICITY" - not found.
   ** Warning ** Output:Meter: invalid Key Name="GAS_DRYER:INTERIOREQUIPMENT:ELECTRICITY" - not found.
   ** Warning ** Output:Meter: invalid Key Name="CLOTHESWASHER:INTERIOREQUIPMENT:ELECTRICITY" - not found.
   ** Warning ** Output:Meter: invalid Key Name="DISHWASHER:INTERIOREQUIPMENT:ELECTRICITY" - not found.
   ** Warning ** Output:Meter: invalid Key Name="REFRIGERATOR:INTERIOREQUIPMENT:ELECTRICITY" - not found.
   ** Warning ** Output:Meter: invalid Key Name="HEATRECOVERY:ELECTRICITY" - not found.
   ** Warning ** Output:Meter: invalid Key Name="WATERSYSTEMS:NATURALGAS" - not found.
   ** Warning ** Output:Meter: invalid Key Name="GAS_DRYER:INTERIOREQUIPMENT:NATURALGAS" - not found.
   ************* Testing Individual Branch Integrity
   ************* All Branches passed integrity testing
   ************* Testing Individual Supply Air Path Integrity
   ************* All Supply Air Paths passed integrity testing
   ************* Testing Individual Return Air Path Integrity
   ************* All Return Air Paths passed integrity testing
   ************* No node connection errors were found.
   ************* Beginning Simulation
   ** Warning ** Temperature out of range [-100. to 200.] (PsyPsatFnTemp)
   **   ~~~   **  Routine=PsyTwbFnTdbWPb, Environment=ANNUAL, at Simulation time=01/21 11:45 - 11:47
   **   ~~~   **  Input Temperature=-156.18
   ** Warning ** MS HEAT PUMP is ready to perform cooling, but its DX cooling coil = DX_COOLING_COIL is not available at Available Schedule = COOLING_AVAIL.
   **   ~~~   ** Availability schedule returned=0.0 Environment=ANNUAL, at Simulation time=03/31 17:13 - 17:15
   ** Warning ** AirflowNetwork: The window or door is open during HVAC system operation WINDOW_FLOOR1_FRONT
   **   ~~~   ** The window or door opening factor is 0.50
   **   ~~~   **  Environment=ANNUAL, at Simulation time=05/16 15:05 - 15:10
   ** Warning ** AirflowNetwork: The window or door is open during HVAC system operation WINDOW_FLOOR1_BACK
   **   ~~~   ** The window or door opening factor is 0.50
   **   ~~~   **  Environment=ANNUAL, at Simulation time=05/16 15:05 - 15:10
   ** Warning ** AirflowNetwork: The window or door is open during HVAC system operation WINDOW_FLOOR1_RIGHT
   **   ~~~   ** The window or door opening factor is 0.50
   **   ~~~   **  Environment=ANNUAL, at Simulation time=05/16 15:05 - 15:10
   ** Warning ** AirflowNetwork: The window or door is open during HVAC system operation WINDOW_FLOOR1_LEFT
   **   ~~~   ** The window or door opening factor is 0.50
   **   ~~~   **  Environment=ANNUAL, at Simulation time=05/16 15:05 - 15:10
   ************* Simulation Error Summary *************
   ** Warning ** The following Report Variables were requested but not generated -- check.rdd file
   **   ~~~   ** Either the IDF did not contain these elements, the variable name is misspelled,
   **   ~~~   ** or the requested variable is an advanced output which requires Output : Diagnostics, DisplayAdvancedReportVariables;
   ************* Key=*, VarName=HEATING COIL NATURALGAS ENERGY, Frequency=
   ************* Key=*, VarName=HEATING COIL PROPANE ENERGY, Frequency=
   ************* Key=*, VarName=BASEBOARD ELECTRICITY ENERGY, Frequency=
   ************* There are 42 unused schedules in input.
   ************* There are 1125 unused week schedules in input.
   ************* There are 1139 unused day schedules in input.
   ************* Use Output:Diagnostics,DisplayUnusedSchedules; to see them.
   *************
   ************* ===== Recurring Error Summary =====
   ************* The following recurring error messages occurred.
   *************
   *************  ** Warning ** Temperature out of range [-100. to 200.] (PsyPsatFnTemp)
   *************  **   ~~~   **   This error occurred 2 total times;
   *************  **   ~~~   **   during Warmup 0 times;
   *************  **   ~~~   **   during Sizing 0 times.
   *************  **   ~~~   **   Max=-156.189148 C  Min=-544.016998 C
   *************
   *************  ** Warning ** MS HEAT PUMP: Cooling coil is still not available ...
   *************  **   ~~~   **   This error occurred 55 total times;
   *************  **   ~~~   **   during Warmup 0 times;
   *************  **   ~~~   **   during Sizing 0 times.
   *************  **   ~~~   **   Max=0.  Min=0.
   *************
   *************  ** Warning ** AirFlowNetwork: WINDOW_FLOOR1_FRONT The window or door is open during HVAC system operation error continues...
   *************  **   ~~~   **   This error occurred 1262 total times;
   *************  **   ~~~   **   during Warmup 0 times;
   *************  **   ~~~   **   during Sizing 0 times.
   *************  **   ~~~   **   Max=0.5  Min=0.5
   *************
   *************  ** Warning ** AirFlowNetwork: WINDOW_FLOOR1_BACK The window or door is open during HVAC system operation error continues...
   *************  **   ~~~   **   This error occurred 1262 total times;
   *************  **   ~~~   **   during Warmup 0 times;
   *************  **   ~~~   **   during Sizing 0 times.
   *************  **   ~~~   **   Max=0.5  Min=0.5
   *************
   *************  ** Warning ** AirFlowNetwork: WINDOW_FLOOR1_RIGHT The window or door is open during HVAC system operation error continues...
   *************  **   ~~~   **   This error occurred 1262 total times;
   *************  **   ~~~   **   during Warmup 0 times;
   *************  **   ~~~   **   during Sizing 0 times.
   *************  **   ~~~   **   Max=0.5  Min=0.5
   *************
   *************  ** Warning ** AirFlowNetwork: WINDOW_FLOOR1_LEFT The window or door is open during HVAC system operation error continues...
   *************  **   ~~~   **   This error occurred 1262 total times;
   *************  **   ~~~   **   during Warmup 0 times;
   *************  **   ~~~   **   during Sizing 0 times.
   *************  **   ~~~   **   Max=0.5  Min=0.5
   *************
   *************
   ************* ===== Final Error Summary =====
   ************* The following error categories occurred.  Consider correcting or noting.
   ************* Nominally Unused Constructions
   ************* ..The nominally unused constructions warning is provided to alert you to potential conditions that can cause
   ************* ..extra time during simulation. Each construction is calculated by the algorithm indicated in the HeatBalanceAlgorithm
   ************* ..object. You may remove the constructions indicated (when you use the DisplayExtraWarnings option).
   *************
   ************* EnergyPlus Warmup Error Summary. During Warmup: 0 Warning; 0 Severe Errors.
   ************* EnergyPlus Sizing Error Summary. During Sizing: 3 Warning; 0 Severe Errors.
   ************* EnergyPlus Completed Successfully-- 5129 Warning; 0 Severe Errors; Elapsed Time=00hr 02min  4.20sec
