Program Version,EnergyPlus, Version 22.2.0-c249759bad, YMD=2023.09.01 18:58,
   ************* Beginning Zone Sizing Calculations
   ** Warning ** ProcessScheduleInput: Schedule:Constant="ALWAYS ON DISCRETE", Schedule Type Limits Name="ONOFF" not found -- will not be validated
   ** Warning ** Foundation:Kiva="KIVA FOUNDATION", no Interior Horizontal Insulation Material Name defined
   **   ~~~   ** Interior Horizontal Insulation Depth will not be used.
   ** Warning ** CheckUsedConstructions: There are 15 nominally unused constructions in input.
   **   ~~~   ** Each Unused construction is shown.
   ************* Construction=INTERIOR FLOOR
   ************* Construction=INTERIOR WINDOW
   ************* Construction=EXTERIOR DOOR
   ************* Construction=INTERIOR DOOR
   ************* Construction=GABLE CONSTRUCTION
   ************* Construction=CRAWL_FLOOR
   ************* Construction=INSULATED PIPE
   ************* Construction=PLAIN PIPE
   ************* Construction=TDD PIPE
   ************* Construction=TDD DOME
   ************* Construction=TDD DIFFUSER
   ************* Construction=CRAWL WALL
   ************* Construction=CEILING-FLOOR-LAYER
   ************* Construction=SLAB CONSTRUCTION W FULL R10 INSULATION
   ************* Construction=SLAB CONSTRUCTION W FULL R5 INSULATION
   ** Warning ** GetDXCoils: Coil:Heating:DX:SingleSpeed="DX_HEATING_COIL" curve values
   **   ~~~   ** ... Defrost Energy Input Ratio Function of Temperature Curve Name = DEFROSTEIR output is not equal to 1.0 (+ or - 10%) at rated conditions.
   **   ~~~   ** ... Curve output at rated conditions = 0.152
   ************* Beginning System Sizing Calculations
   ************* Beginning Plant Sizing Calculations
   ** Warning ** SizeDXCoil Coil:Cooling:DX:SingleSpeed DX_COOLING_COIL
   **   ~~~   ** ...Gross Rated Total Cooling Capacity [W] will be limited by the maximum rated volume flow per rated total capacity ratio.
   **   ~~~   ** ...DX coil volume flow rate ( m3/s ) = 0.569632
   **   ~~~   ** ...Requested capacity ( W ) = 8959.075
   **   ~~~   ** ...Requested flow/capacity ratio ( m3/s/W ) = 6.358E-005
   **   ~~~   ** ...Maximum flow/capacity ratio ( m3/s/W ) = 6.041E-005
   **   ~~~   ** ...Adjusted capacity ( W ) = 9429.441
   ** Warning ** Coil:WaterHeating:AirToWaterHeatPump:Wrapped "HEAT PUMP WATER HEATER EVAPORATOR": Rated air volume flow rate per watt of rated total water heating capacity is out of range
   **   ~~~   ** Min Rated Vol Flow Per Watt=[4.027E-005], Rated Vol Flow Per Watt=[1.510E-004], Max Rated Vol Flow Per Watt=[8.056E-005]. See Input-Output Reference Manual for valid range.
   ************* SizeFan: : Potential issue with equipment sizing for Fan:OnOff HEAT PUMP WATER HEATER FAN
   **   ~~~   ** User-Specified Maximum Flow Rate [m3/s] = 0.22653
   **   ~~~   ** differs from Design Size Maximum Flow Rate [m3/s] = 7.55250E-002
   **   ~~~   ** This may, or may not, indicate mismatched component sizes.
   **   ~~~   ** Verify that the value entered is intended and is consistent with other components.
   ** Warning ** Water heater = WATER HEATER TANK:  Recovery Efficiency and Energy Factor could not be calculated during the test for standard ratings
   **   ~~~   ** Setpoint was never recovered and/or heater never turned on
   ** Warning ** Check input. Pump nominal power or motor efficiency is set to 0, for pump=MAINS PRESSURE
   ** Warning ** AirflowNetwork::Solver::validate_distribution: Heat pump water heater is simulated along with an AirflowNetwork but is not included in the AirflowNetwork.
   ** Warning ** Output:Meter: invalid Key Name="ELECTRIC_RANGE:INTERIOREQUIPMENT:ELECTRICITY" - not found.
   ** Warning ** Output:Meter: invalid Key Name="ELECTRIC_DRYER:INTERIOREQUIPMENT:ELECTRICITY" - not found.
   ** Warning ** Output:Meter: invalid Key Name="HEATRECOVERY:ELECTRICITY" - not found.
   ** Warning ** Output:Meter: invalid Key Name="HEATING:NATURALGAS" - not found.
   ** Warning ** Output:Meter: invalid Key Name="WATERSYSTEMS:NATURALGAS" - not found.
   ** Warning ** Output:Meter: invalid Key Name="PROPANE:FACILITY" - not found.
   ** Warning ** Output:Meter: invalid Key Name="HEATING:PROPANE" - not found.
   ************* Testing Individual Branch Integrity
   ************* All Branches passed integrity testing
   ************* Testing Individual Supply Air Path Integrity
   ************* All Supply Air Paths passed integrity testing
   ************* Testing Individual Return Air Path Integrity
   ************* All Return Air Paths passed integrity testing
   ************* No node connection errors were found.
   ************* Beginning Simulation
   ** Warning ** CalcEquipmentFlowRates: "TOTAL HOT WATER LOAD" - Target water temperature is greater than the hot water temperature by (0.97 C)
   **   ~~~   **  Environment=EXTREME_WINTER, at Simulation time=12/22 03:45 - 04:00
   **   ~~~   ** ...target water temperature     = 53.33 C
   **   ~~~   ** ...hot water temperature        = 52.37 C
   **   ~~~   ** ...Target water temperature should be less than or equal to the hot water temperature. Verify temperature setpoints and schedules.
   ** Warning ** SimHVAC: Maximum iterations (20) exceeded for all HVAC loops, at ANNUAL, 01/02 18:53 - 19:00
   **   ~~~   ** The solution for one or more of the Air Loop HVAC systems did not appear to converge
   **   ~~~   ** Air System Named = CENTRAL SYSTEM did not converge for mass flow rate
   **   ~~~   ** Check values should be zero. Most Recent values listed first.
   **   ~~~   ** Demand-to-Supply interface mass flow rate check value iteration history trace: 7.399387E-002,7.399387E-002,7.399387E-002,7.399387E-002,7.399387E-002,7.399387E-002,7.399387E-002,7.399387E-002,7.399387E-002,7.399387E-002,
   **   ~~~   ** Supply-to-demand interface deck 1 mass flow rate check value iteration history trace: 7.399387E-002,7.399387E-002,7.399387E-002,7.399387E-002,7.399387E-002,7.399387E-002,7.399387E-002,7.399387E-002,7.399387E-002,7.399387E-002,
   **   ~~~   ** Air System Named = CENTRAL SYSTEM did not converge for energy
   **   ~~~   ** Check values should be zero. Most Recent values listed first.
   **   ~~~   ** Demand-to-Supply interface energy check value iteration history trace: 1475.847664,1475.847664,1475.847664,1475.847664,1475.847664,1475.847664,1475.847663,1475.847663,1475.847663,1475.847663,
   **   ~~~   ** Supply-to-demand interface deck 1 energy check value iteration history trace: 2386.338199,2386.338199,2386.338199,2386.338199,2386.338199,2386.338199,2386.338198,2386.338198,2386.338198,2386.338198,
   ** Warning ** SimHVAC: Maximum iterations (20) exceeded for all HVAC loops, at ANNUAL, 01/07 11:15 - 11:18
   **   ~~~   ** The solution for one or more of the Air Loop HVAC systems did not appear to converge
   **   ~~~   ** Air System Named = CENTRAL SYSTEM did not converge for mass flow rate
   **   ~~~   ** Check values should be zero. Most Recent values listed first.
   **   ~~~   ** Demand-to-Supply interface mass flow rate check value iteration history trace: 5.402757E-002,5.402757E-002,5.402757E-002,5.402757E-002,5.402757E-002,5.402757E-002,5.402757E-002,5.402757E-002,5.402757E-002,5.402757E-002,
   **   ~~~   ** Supply-to-demand interface deck 1 mass flow rate check value iteration history trace: 5.402757E-002,5.402757E-002,5.402757E-002,5.402757E-002,5.402757E-002,5.402757E-002,5.402757E-002,5.402757E-002,5.402757E-002,5.402757E-002,
   **   ~~~   ** Air System Named = CENTRAL SYSTEM did not converge for energy
   **   ~~~   ** Check values should be zero. Most Recent values listed first.
   **   ~~~   ** Demand-to-Supply interface energy check value iteration history trace: 1068.371753,1068.371753,1068.371753,1068.371753,1068.371753,1068.371753,1068.371753,1068.371753,1068.371753,1068.371753,
   **   ~~~   ** Supply-to-demand interface deck 1 energy check value iteration history trace: 1950.337703,1950.337703,1950.337703,1950.337702,1950.337702,1950.337702,1950.337702,1950.337702,1950.337702,1950.337702,
   ** Warning ** SimHVAC: Maximum iterations (20) exceeded for all HVAC loops, at ANNUAL, 01/30 06:45 - 06:52
   **   ~~~   ** The solution for one or more of the Air Loop HVAC systems did not appear to converge
   **   ~~~   ** Air System Named = CENTRAL SYSTEM did not converge for mass flow rate
   **   ~~~   ** Check values should be zero. Most Recent values listed first.
   **   ~~~   ** Demand-to-Supply interface mass flow rate check value iteration history trace: 5.873064E-002,5.873064E-002,5.873064E-002,5.873064E-002,5.873064E-002,5.873064E-002,5.873064E-002,5.873064E-002,5.873064E-002,5.873064E-002,
   **   ~~~   ** Supply-to-demand interface deck 1 mass flow rate check value iteration history trace: 5.873064E-002,5.873064E-002,5.873064E-002,5.873064E-002,5.873064E-002,5.873064E-002,5.873064E-002,5.873064E-002,5.873064E-002,5.873064E-002,
   **   ~~~   ** Air System Named = CENTRAL SYSTEM did not converge for energy
   **   ~~~   ** Check values should be zero. Most Recent values listed first.
   **   ~~~   ** Demand-to-Supply interface energy check value iteration history trace: 1163.864930,1163.864930,1163.864930,1163.864930,1163.864930,1163.864930,1163.864929,1163.864929,1163.864929,1163.864929,
   **   ~~~   ** Supply-to-demand interface deck 1 energy check value iteration history trace: 2142.058141,2142.058140,2142.058140,2142.058140,2142.058140,2142.058140,2142.058140,2142.058140,2142.058140,2142.058140,
   ** Warning ** SimHVAC: Maximum iterations (20) exceeded for all HVAC loops, at ANNUAL, 02/01 09:39 - 09:42
   **   ~~~   ** The solution for one or more of the Air Loop HVAC systems did not appear to converge
   **   ~~~   ** Air System Named = CENTRAL SYSTEM did not converge for mass flow rate
   **   ~~~   ** Check values should be zero. Most Recent values listed first.
   **   ~~~   ** Demand-to-Supply interface mass flow rate check value iteration history trace: 4.917826E-002,4.917826E-002,4.917826E-002,4.917826E-002,4.917826E-002,4.917826E-002,4.917826E-002,4.917826E-002,4.917826E-002,4.917826E-002,
   **   ~~~   ** Supply-to-demand interface deck 1 mass flow rate check value iteration history trace: 4.917826E-002,4.917826E-002,4.917826E-002,4.917826E-002,4.917826E-002,4.917826E-002,4.917826E-002,4.917826E-002,4.917826E-002,4.917826E-002,
   **   ~~~   ** Air System Named = CENTRAL SYSTEM did not converge for energy
   **   ~~~   ** Check values should be zero. Most Recent values listed first.
   **   ~~~   ** Demand-to-Supply interface energy check value iteration history trace: 969.011711,969.011711,969.011711,969.011711,969.011711,969.011711,969.011711,969.011711,969.011711,969.011711,
   **   ~~~   ** Supply-to-demand interface deck 1 energy check value iteration history trace: 1789.433156,1789.433156,1789.433156,1789.433156,1789.433156,1789.433156,1789.433156,1789.433156,1789.433156,1789.433156,
   ** Warning ** SimHVAC: Maximum iterations (20) exceeded for all HVAC loops, at ANNUAL, 02/15 08:38 - 08:41
   **   ~~~   ** The solution for one or more of the Air Loop HVAC systems did not appear to converge
   **   ~~~   ** Air System Named = CENTRAL SYSTEM did not converge for mass flow rate
   **   ~~~   ** Check values should be zero. Most Recent values listed first.
   **   ~~~   ** Demand-to-Supply interface mass flow rate check value iteration history trace: 6.494218E-002,6.494218E-002,6.494218E-002,6.494218E-002,6.494218E-002,6.494218E-002,6.494218E-002,6.494218E-002,6.494218E-002,6.494218E-002,
   **   ~~~   ** Supply-to-demand interface deck 1 mass flow rate check value iteration history trace: 6.494218E-002,6.494218E-002,6.494218E-002,6.494218E-002,6.494218E-002,6.494218E-002,6.494218E-002,6.494218E-002,6.494218E-002,6.494218E-002,
   **   ~~~   ** Air System Named = CENTRAL SYSTEM did not converge for energy
   **   ~~~   ** Check values should be zero. Most Recent values listed first.
   **   ~~~   ** Demand-to-Supply interface energy check value iteration history trace: 1283.473598,1283.473598,1283.473598,1283.473598,1283.473598,1283.473598,1283.473598,1283.473598,1283.473598,1283.473598,
   **   ~~~   ** Supply-to-demand interface deck 1 energy check value iteration history trace: 2304.612257,2304.612256,2304.612256,2304.612256,2304.612256,2304.612256,2304.612256,2304.612256,2304.612256,2304.612256,
   ** Warning ** SimHVAC: Maximum iterations (20) exceeded for all HVAC loops, at ANNUAL, 03/10 06:30 - 06:45
   **   ~~~   ** The solution for one or more of the Air Loop HVAC systems did not appear to converge
   **   ~~~   ** Air System Named = CENTRAL SYSTEM did not converge for mass flow rate
   **   ~~~   ** Check values should be zero. Most Recent values listed first.
   **   ~~~   ** Demand-to-Supply interface mass flow rate check value iteration history trace: 4.633864E-002,4.633864E-002,4.633864E-002,4.633864E-002,4.633864E-002,4.633864E-002,4.633864E-002,4.633864E-002,4.633864E-002,4.633864E-002,
   **   ~~~   ** Supply-to-demand interface deck 1 mass flow rate check value iteration history trace: 4.633864E-002,4.633864E-002,4.633864E-002,4.633864E-002,4.633864E-002,4.633864E-002,4.633864E-002,4.633864E-002,4.633864E-002,4.633864E-002,
   **   ~~~   ** Air System Named = CENTRAL SYSTEM did not converge for energy
   **   ~~~   ** Check values should be zero. Most Recent values listed first.
   **   ~~~   ** Demand-to-Supply interface energy check value iteration history trace: 919.080347,919.080347,919.080347,919.080346,919.080346,919.080346,919.080346,919.080346,919.080346,919.080346,
   **   ~~~   ** Supply-to-demand interface deck 1 energy check value iteration history trace: 1610.471068,1610.471068,1610.471068,1610.471068,1610.471068,1610.471068,1610.471068,1610.471068,1610.471068,1610.471068,
   ** Warning ** Temperature out of range [-100. to 200.] (PsyPsatFnTemp)
   **   ~~~   **  Routine=PsyTwbFnTdbWPb, Environment=ANNUAL, at Simulation time=11/25 02:00 - 02:15
   **   ~~~   **  Input Temperature=-105.57
   ** Warning ** SimHVAC: Maximum iterations (20) exceeded for all HVAC loops, at ANNUAL, 12/04 19:53 - 20:00
   **   ~~~   ** The solution for one or more of the Air Loop HVAC systems did not appear to converge
   **   ~~~   ** Air System Named = CENTRAL SYSTEM did not converge for mass flow rate
   **   ~~~   ** Check values should be zero. Most Recent values listed first.
   **   ~~~   ** Demand-to-Supply interface mass flow rate check value iteration history trace: 2.977758E-002,2.977758E-002,2.977758E-002,2.977758E-002,2.977758E-002,2.977758E-002,2.977758E-002,2.977758E-002,2.977758E-002,2.977758E-002,
   **   ~~~   ** Supply-to-demand interface deck 1 mass flow rate check value iteration history trace: 2.977758E-002,2.977758E-002,2.977758E-002,2.977758E-002,2.977758E-002,2.977758E-002,2.977758E-002,2.977758E-002,2.977758E-002,2.977758E-002,
   **   ~~~   ** Air System Named = CENTRAL SYSTEM did not converge for energy
   **   ~~~   ** Check values should be zero. Most Recent values listed first.
   **   ~~~   ** Demand-to-Supply interface energy check value iteration history trace: 692.940842,692.940842,692.940842,692.940842,692.940842,692.940842,692.940842,692.940842,692.940842,692.940842,
   **   ~~~   ** Supply-to-demand interface deck 1 energy check value iteration history trace: 227.226503,227.226503,227.226503,227.226503,227.226503,227.226503,227.226503,227.226503,227.226503,227.226503,
   ** Warning ** SimHVAC: Maximum iterations (20) exceeded for all HVAC loops, at ANNUAL, 12/16 08:49 - 08:51
   **   ~~~   ** The solution for one or more of the Air Loop HVAC systems did not appear to converge
   **   ~~~   ** Air System Named = CENTRAL SYSTEM did not converge for mass flow rate
   **   ~~~   ** Check values should be zero. Most Recent values listed first.
   **   ~~~   ** Demand-to-Supply interface mass flow rate check value iteration history trace: 5.516193E-002,5.516193E-002,5.516193E-002,5.516193E-002,5.516193E-002,5.516193E-002,5.516193E-002,5.516193E-002,5.516193E-002,5.516193E-002,
   **   ~~~   ** Supply-to-demand interface deck 1 mass flow rate check value iteration history trace: 5.516193E-002,5.516193E-002,5.516193E-002,5.516193E-002,5.516193E-002,5.516193E-002,5.516193E-002,5.516193E-002,5.516193E-002,5.516193E-002,
   **   ~~~   ** Air System Named = CENTRAL SYSTEM did not converge for energy
   **   ~~~   ** Check values should be zero. Most Recent values listed first.
   **   ~~~   ** Demand-to-Supply interface energy check value iteration history trace: 1089.563147,1089.563147,1089.563147,1089.563147,1089.563147,1089.563147,1089.563147,1089.563147,1089.563147,1089.563147,
   **   ~~~   ** Supply-to-demand interface deck 1 energy check value iteration history trace: 1769.176779,1769.176779,1769.176779,1769.176779,1769.176779,1769.176779,1769.176779,1769.176779,1769.176778,1769.176778,
   ** Warning ** SimHVAC: Maximum iterations (20) exceeded for all HVAC loops, at ANNUAL, 12/18 08:15 - 08:30
   **   ~~~   ** The solution for one or more of the Air Loop HVAC systems did not appear to converge
   **   ~~~   ** Air System Named = CENTRAL SYSTEM did not converge for mass flow rate
   **   ~~~   ** Check values should be zero. Most Recent values listed first.
   **   ~~~   ** Demand-to-Supply interface mass flow rate check value iteration history trace: 5.337156E-002,5.337156E-002,5.337156E-002,5.337156E-002,5.337156E-002,5.337156E-002,5.337156E-002,5.337156E-002,5.337156E-002,5.337156E-002,
   **   ~~~   ** Supply-to-demand interface deck 1 mass flow rate check value iteration history trace: 5.337156E-002,5.337156E-002,5.337156E-002,5.337156E-002,5.337156E-002,5.337156E-002,5.337156E-002,5.337156E-002,5.337156E-002,5.337156E-002,
   **   ~~~   ** Air System Named = CENTRAL SYSTEM did not converge for energy
   **   ~~~   ** Check values should be zero. Most Recent values listed first.
   **   ~~~   ** Demand-to-Supply interface energy check value iteration history trace: 1057.575779,1057.575779,1057.575779,1057.575779,1057.575779,1057.575778,1057.575778,1057.575778,1057.575778,1057.575778,
   **   ~~~   ** Supply-to-demand interface deck 1 energy check value iteration history trace: 1826.348479,1826.348479,1826.348479,1826.348479,1826.348479,1826.348479,1826.348479,1826.348479,1826.348479,1826.348479,
   ** Warning ** SimHVAC: Maximum iterations (20) exceeded for all HVAC loops, at ANNUAL, 12/30 10:25 - 10:27
   **   ~~~   ** The solution for one or more of the Air Loop HVAC systems did not appear to converge
   **   ~~~   ** Air System Named = CENTRAL SYSTEM did not converge for mass flow rate
   **   ~~~   ** Check values should be zero. Most Recent values listed first.
   **   ~~~   ** Demand-to-Supply interface mass flow rate check value iteration history trace: 6.999854E-002,6.999854E-002,6.999854E-002,6.999854E-002,6.999854E-002,6.999854E-002,6.999854E-002,6.999854E-002,6.999854E-002,6.999854E-002,
   **   ~~~   ** Supply-to-demand interface deck 1 mass flow rate check value iteration history trace: 6.999854E-002,6.999854E-002,6.999854E-002,6.999854E-002,6.999854E-002,6.999854E-002,6.999854E-002,6.999854E-002,6.999854E-002,6.999854E-002,
   **   ~~~   ** Air System Named = CENTRAL SYSTEM did not converge for energy
   **   ~~~   ** Check values should be zero. Most Recent values listed first.
   **   ~~~   ** Demand-to-Supply interface energy check value iteration history trace: 1379.712603,1379.712603,1379.712603,1379.712603,1379.712603,1379.712602,1379.712602,1379.712602,1379.712602,1379.712602,
   **   ~~~   ** Supply-to-demand interface deck 1 energy check value iteration history trace: 2241.603500,2241.603500,2241.603500,2241.603500,2241.603499,2241.603499,2241.603499,2241.603499,2241.603499,2241.603499,
   ************* Simulation Error Summary *************
   ** Warning ** The following Report Variables were requested but not generated -- check.rdd file
   **   ~~~   ** Either the IDF did not contain these elements, the variable name is misspelled,
   **   ~~~   ** or the requested variable is an advanced output which requires Output : Diagnostics, DisplayAdvancedReportVariables;
   ************* Key=*, VarName=BASEBOARD TOTAL HEATING ENERGY, Frequency=
   ************* Key=*, VarName=WATER HEATER NATURALGAS ENERGY, Frequency=
   ************* Key=*, VarName=COOLING COIL TOTAL HEATING ENERGY, Frequency=
   ************* There are 34 unused schedules in input.
   ************* There are 388 unused week schedules in input.
   ************* There are 396 unused day schedules in input.
   ************* Use Output:Diagnostics,DisplayUnusedSchedules; to see them.
   *************
   ************* ===== Recurring Error Summary =====
   ************* The following recurring error messages occurred.
   *************
   *************  ** Warning ** "TOTAL HOT WATER LOAD" - Target water temperature should be less than or equal to the hot water temperature error continues...
   *************  **   ~~~   **   This error occurred 77201 total times;
   *************  **   ~~~   **   during Warmup 0 times;
   *************  **   ~~~   **   during Sizing 0 times.
   *************  **   ~~~   **   Max=6.168529  Min=5.226906E-003
   *************
   *************  ** Warning ** Temperature out of range [-100. to 200.] (PsyPsatFnTemp)
   *************  **   ~~~   **   This error occurred 2 total times;
   *************  **   ~~~   **   during Warmup 0 times;
   *************  **   ~~~   **   during Sizing 0 times.
   *************  **   ~~~   **   Max=-101.999252 C  Min=-105.570145 C
   *************
   *************
   ************* ===== Final Error Summary =====
   ************* The following error categories occurred.  Consider correcting or noting.
   ************* Nominally Unused Constructions
   ************* ..The nominally unused constructions warning is provided to alert you to potential conditions that can cause
   ************* ..extra time during simulation. Each construction is calculated by the algorithm indicated in the HeatBalanceAlgorithm
   ************* ..object. You may remove the constructions indicated (when you use the DisplayExtraWarnings option).
   *************
   ************* EnergyPlus Warmup Error Summary. During Warmup: 0 Warning; 0 Severe Errors.
   ************* EnergyPlus Sizing Error Summary. During Sizing: 4 Warning; 0 Severe Errors.
   ************* EnergyPlus Completed Successfully-- 77231 Warning; 0 Severe Errors; Elapsed Time=00hr 01min 52.93sec
