Program Version,EnergyPlus, Version 22.2.0-c249759bad, YMD=2023.09.01 20:04,
   ************* Beginning Zone Sizing Calculations
   ** Warning ** ProcessScheduleInput: Schedule:Constant="ALWAYS ON DISCRETE", Schedule Type Limits Name="ONOFF" not found -- will not be validated
   ** Warning ** Foundation:Kiva="KIVA FOUNDATION", no Interior Horizontal Insulation Material Name defined
   **   ~~~   ** Interior Horizontal Insulation Depth will not be used.
   ** Warning ** CheckUsedConstructions: There are 15 nominally unused constructions in input.
   **   ~~~   ** Each Unused construction is shown.
   ************* Construction=INTERIOR FLOOR
   ************* Construction=INTERIOR WINDOW
   ************* Construction=EXTERIOR DOOR
   ************* Construction=INTERIOR DOOR
   ************* Construction=GABLE CONSTRUCTION
   ************* Construction=CRAWL_FLOOR
   ************* Construction=INSULATED PIPE
   ************* Construction=PLAIN PIPE
   ************* Construction=TDD PIPE
   ************* Construction=TDD DOME
   ************* Construction=TDD DIFFUSER
   ************* Construction=CRAWL WALL
   ************* Construction=CEILING-FLOOR-LAYER
   ************* Construction=SLAB CONSTRUCTION W FULL R10 INSULATION
   ************* Construction=SLAB CONSTRUCTION W FULL R5 INSULATION
   ** Warning ** GetDXCoils: Coil:Heating:DX:SingleSpeed="DX_HEATING_COIL" curve values
   **   ~~~   ** ... Defrost Energy Input Ratio Function of Temperature Curve Name = DEFROSTEIR output is not equal to 1.0 (+ or - 10%) at rated conditions.
   **   ~~~   ** ... Curve output at rated conditions = 0.152
   ************* Beginning System Sizing Calculations
   ************* Beginning Plant Sizing Calculations
   ** Warning ** Coil:WaterHeating:AirToWaterHeatPump:Wrapped "HEAT PUMP WATER HEATER EVAPORATOR": Rated air volume flow rate per watt of rated total water heating capacity is out of range
   **   ~~~   ** Min Rated Vol Flow Per Watt=[4.027E-005], Rated Vol Flow Per Watt=[1.510E-004], Max Rated Vol Flow Per Watt=[8.056E-005]. See Input-Output Reference Manual for valid range.
   ************* SizeFan: : Potential issue with equipment sizing for Fan:OnOff HEAT PUMP WATER HEATER FAN
   **   ~~~   ** User-Specified Maximum Flow Rate [m3/s] = 0.22653
   **   ~~~   ** differs from Design Size Maximum Flow Rate [m3/s] = 7.55250E-002
   **   ~~~   ** This may, or may not, indicate mismatched component sizes.
   **   ~~~   ** Verify that the value entered is intended and is consistent with other components.
   ** Warning ** Water heater = WATER HEATER TANK:  Recovery Efficiency and Energy Factor could not be calculated during the test for standard ratings
   **   ~~~   ** Setpoint was never recovered and/or heater never turned on
   ** Warning ** Check input. Pump nominal power or motor efficiency is set to 0, for pump=MAINS PRESSURE
   ** Warning ** AirflowNetwork::Solver::validate_distribution: Heat pump water heater is simulated along with an AirflowNetwork but is not included in the AirflowNetwork.
   ** Warning ** Output:Meter: invalid Key Name="ELECTRIC_RANGE:INTERIOREQUIPMENT:ELECTRICITY" - not found.
   ** Warning ** Output:Meter: invalid Key Name="ELECTRIC_DRYER:INTERIOREQUIPMENT:ELECTRICITY" - not found.
   ** Warning ** Output:Meter: invalid Key Name="HEATRECOVERY:ELECTRICITY" - not found.
   ** Warning ** Output:Meter: invalid Key Name="HEATING:NATURALGAS" - not found.
   ** Warning ** Output:Meter: invalid Key Name="WATERSYSTEMS:NATURALGAS" - not found.
   ** Warning ** Output:Meter: invalid Key Name="PROPANE:FACILITY" - not found.
   ** Warning ** Output:Meter: invalid Key Name="HEATING:PROPANE" - not found.
   ************* Testing Individual Branch Integrity
   ************* All Branches passed integrity testing
   ************* Testing Individual Supply Air Path Integrity
   ************* All Supply Air Paths passed integrity testing
   ************* Testing Individual Return Air Path Integrity
   ************* All Return Air Paths passed integrity testing
   ************* No node connection errors were found.
   ************* Beginning Simulation
   ** Warning ** CalcEquipmentFlowRates: "TOTAL HOT WATER LOAD" - Target water temperature is greater than the hot water temperature by (3.68 C)
   **   ~~~   **  Environment=EXTREME_WINTER, at Simulation time=01/20 07:00 - 07:15
   **   ~~~   ** ...target water temperature     = 53.33 C
   **   ~~~   ** ...hot water temperature        = 49.65 C
   **   ~~~   ** ...Target water temperature should be less than or equal to the hot water temperature. Verify temperature setpoints and schedules.
   ** Warning ** SimHVAC: Maximum iterations (20) exceeded for all HVAC loops, at ANNUAL, 01/09 13:30 - 13:45
   **   ~~~   ** The solution for one or more of the Air Loop HVAC systems did not appear to converge
   **   ~~~   ** Air System Named = CENTRAL SYSTEM did not converge for mass flow rate
   **   ~~~   ** Check values should be zero. Most Recent values listed first.
   **   ~~~   ** Demand-to-Supply interface mass flow rate check value iteration history trace: 7.271898E-002,7.271898E-002,7.271898E-002,7.271898E-002,7.271898E-002,7.271898E-002,7.271898E-002,7.271898E-002,7.271898E-002,7.271898E-002,
   **   ~~~   ** Supply-to-demand interface deck 1 mass flow rate check value iteration history trace: 7.271898E-002,7.271898E-002,7.271898E-002,7.271898E-002,7.271898E-002,7.271898E-002,7.271898E-002,7.271898E-002,7.271898E-002,7.271898E-002,
   **   ~~~   ** Air System Named = CENTRAL SYSTEM did not converge for energy
   **   ~~~   ** Check values should be zero. Most Recent values listed first.
   **   ~~~   ** Demand-to-Supply interface energy check value iteration history trace: 1444.105742,1444.105742,1444.105742,1444.105741,1444.105741,1444.105741,1444.105741,1444.105741,1444.105741,1444.105741,
   **   ~~~   ** Supply-to-demand interface deck 1 energy check value iteration history trace: 2196.368890,2196.368890,2196.368890,2196.368890,2196.368890,2196.368890,2196.368890,2196.368890,2196.368889,2196.368889,
   ** Warning ** SimHVAC: Maximum iterations (20) exceeded for all HVAC loops, at ANNUAL, 03/12 22:45 - 22:52
   **   ~~~   ** The solution for one or more of the Air Loop HVAC systems did not appear to converge
   **   ~~~   ** Air System Named = CENTRAL SYSTEM did not converge for mass flow rate
   **   ~~~   ** Check values should be zero. Most Recent values listed first.
   **   ~~~   ** Demand-to-Supply interface mass flow rate check value iteration history trace: 8.967089E-002,8.967089E-002,8.967089E-002,8.967089E-002,8.967089E-002,8.967089E-002,8.967089E-002,8.967089E-002,8.967089E-002,8.967089E-002,
   **   ~~~   ** Supply-to-demand interface deck 1 mass flow rate check value iteration history trace: 8.967089E-002,8.967089E-002,8.967089E-002,8.967089E-002,8.967089E-002,8.967089E-002,8.967089E-002,8.967089E-002,8.967089E-002,8.967089E-002,
   **   ~~~   ** Air System Named = CENTRAL SYSTEM did not converge for energy
   **   ~~~   ** Check values should be zero. Most Recent values listed first.
   **   ~~~   ** Demand-to-Supply interface energy check value iteration history trace: 1661.396351,1661.396351,1661.396351,1661.396351,1661.396351,1661.396351,1661.396351,1661.396350,1661.396350,1661.396350,
   **   ~~~   ** Supply-to-demand interface deck 1 energy check value iteration history trace: 2595.690647,2595.690646,2595.690646,2595.690646,2595.690646,2595.690646,2595.690646,2595.690645,2595.690645,2595.690645,
   ** Warning ** SimHVAC: Maximum iterations (20) exceeded for all HVAC loops, at ANNUAL, 03/14 22:00 - 22:15
   **   ~~~   ** The solution for one or more of the Air Loop HVAC systems did not appear to converge
   **   ~~~   ** Air System Named = CENTRAL SYSTEM did not converge for mass flow rate
   **   ~~~   ** Check values should be zero. Most Recent values listed first.
   **   ~~~   ** Demand-to-Supply interface mass flow rate check value iteration history trace: 9.233077E-002,9.233077E-002,9.233077E-002,9.233077E-002,9.233077E-002,9.233077E-002,9.233077E-002,9.233077E-002,9.233077E-002,9.233077E-002,
   **   ~~~   ** Supply-to-demand interface deck 1 mass flow rate check value iteration history trace: 9.233077E-002,9.233077E-002,9.233077E-002,9.233077E-002,9.233077E-002,9.233077E-002,9.233077E-002,9.233077E-002,9.233077E-002,9.233077E-002,
   **   ~~~   ** Air System Named = CENTRAL SYSTEM did not converge for energy
   **   ~~~   ** Check values should be zero. Most Recent values listed first.
   **   ~~~   ** Demand-to-Supply interface energy check value iteration history trace: 1828.006609,1828.006609,1828.006609,1828.006609,1828.006609,1828.006608,1828.006608,1828.006608,1828.006608,1828.006608,
   **   ~~~   ** Supply-to-demand interface deck 1 energy check value iteration history trace: 2710.253972,2710.253972,2710.253971,2710.253971,2710.253971,2710.253971,2710.253971,2710.253970,2710.253970,2710.253970,
   ** Warning ** SimHVAC: Maximum iterations (20) exceeded for all HVAC loops, at ANNUAL, 03/23 10:45 - 11:00
   **   ~~~   ** The solution for one or more of the Air Loop HVAC systems did not appear to converge
   **   ~~~   ** Air System Named = CENTRAL SYSTEM did not converge for mass flow rate
   **   ~~~   ** Check values should be zero. Most Recent values listed first.
   **   ~~~   ** Demand-to-Supply interface mass flow rate check value iteration history trace: 7.700836E-002,7.700836E-002,7.700836E-002,7.700836E-002,7.700836E-002,7.700836E-002,7.700836E-002,7.700836E-002,7.700836E-002,7.700836E-002,
   **   ~~~   ** Supply-to-demand interface deck 1 mass flow rate check value iteration history trace: 7.700836E-002,7.700836E-002,7.700836E-002,7.700836E-002,7.700836E-002,7.700836E-002,7.700836E-002,7.700836E-002,7.700836E-002,7.700836E-002,
   **   ~~~   ** Air System Named = CENTRAL SYSTEM did not converge for energy
   **   ~~~   ** Check values should be zero. Most Recent values listed first.
   **   ~~~   ** Demand-to-Supply interface energy check value iteration history trace: 1522.449845,1522.449845,1522.449845,1522.449845,1522.449845,1522.449845,1522.449845,1522.449845,1522.449845,1522.449845,
   **   ~~~   ** Supply-to-demand interface deck 1 energy check value iteration history trace: 2630.829510,2630.829509,2630.829509,2630.829509,2630.829509,2630.829509,2630.829509,2630.829509,2630.829508,2630.829508,
   ** Warning ** SimHVAC: Maximum iterations (20) exceeded for all HVAC loops, at ANNUAL, 03/29 13:30 - 13:45
   **   ~~~   ** The solution for one or more of the Air Loop HVAC systems did not appear to converge
   **   ~~~   ** Air System Named = CENTRAL SYSTEM did not converge for mass flow rate
   **   ~~~   ** Check values should be zero. Most Recent values listed first.
   **   ~~~   ** Demand-to-Supply interface mass flow rate check value iteration history trace: 5.463737E-002,5.463737E-002,5.463737E-002,5.463737E-002,5.463737E-002,5.463737E-002,5.463737E-002,5.463737E-002,5.463737E-002,5.463737E-002,
   **   ~~~   ** Supply-to-demand interface deck 1 mass flow rate check value iteration history trace: 5.463737E-002,5.463737E-002,5.463737E-002,5.463737E-002,5.463737E-002,5.463737E-002,5.463737E-002,5.463737E-002,5.463737E-002,5.463737E-002,
   **   ~~~   ** Air System Named = CENTRAL SYSTEM did not converge for energy
   **   ~~~   ** Check values should be zero. Most Recent values listed first.
   **   ~~~   ** Demand-to-Supply interface energy check value iteration history trace: 1082.732249,1082.732249,1082.732249,1082.732249,1082.732249,1082.732249,1082.732248,1082.732248,1082.732248,1082.732248,
   **   ~~~   ** Supply-to-demand interface deck 1 energy check value iteration history trace: 1909.883273,1909.883273,1909.883273,1909.883273,1909.883272,1909.883272,1909.883272,1909.883272,1909.883272,1909.883272,
   ** Warning ** SimHVAC: Maximum iterations (20) exceeded for all HVAC loops, at ANNUAL, 04/06 08:30 - 08:45
   **   ~~~   ** The solution for one or more of the Air Loop HVAC systems did not appear to converge
   **   ~~~   ** Air System Named = CENTRAL SYSTEM did not converge for mass flow rate
   **   ~~~   ** Check values should be zero. Most Recent values listed first.
   **   ~~~   ** Demand-to-Supply interface mass flow rate check value iteration history trace: 9.473182E-002,9.473182E-002,9.473182E-002,9.473182E-002,9.473182E-002,9.473182E-002,9.473182E-002,9.473182E-002,9.473182E-002,9.473182E-002,
   **   ~~~   ** Supply-to-demand interface deck 1 mass flow rate check value iteration history trace: 9.473182E-002,9.473182E-002,9.473182E-002,9.473182E-002,9.473182E-002,9.473182E-002,9.473182E-002,9.473182E-002,9.473182E-002,9.473182E-002,
   **   ~~~   ** Air System Named = CENTRAL SYSTEM did not converge for energy
   **   ~~~   ** Check values should be zero. Most Recent values listed first.
   **   ~~~   ** Demand-to-Supply interface energy check value iteration history trace: 1877.673589,1877.673589,1877.673588,1877.673588,1877.673588,1877.673588,1877.673588,1877.673588,1877.673588,1877.673588,
   **   ~~~   ** Supply-to-demand interface deck 1 energy check value iteration history trace: 2972.755056,2972.755056,2972.755056,2972.755056,2972.755056,2972.755055,2972.755055,2972.755055,2972.755055,2972.755055,
   ** Warning ** SimHVAC: Maximum iterations (20) exceeded for all HVAC loops, at ANNUAL, 04/08 08:30 - 08:45
   **   ~~~   ** The solution for one or more of the Air Loop HVAC systems did not appear to converge
   **   ~~~   ** Air System Named = CENTRAL SYSTEM did not converge for mass flow rate
   **   ~~~   ** Check values should be zero. Most Recent values listed first.
   **   ~~~   ** Demand-to-Supply interface mass flow rate check value iteration history trace: 7.218589E-002,7.218589E-002,7.218589E-002,7.218589E-002,7.218589E-002,7.218589E-002,7.218589E-002,7.218589E-002,7.218589E-002,7.218589E-002,
   **   ~~~   ** Supply-to-demand interface deck 1 mass flow rate check value iteration history trace: 7.218589E-002,7.218589E-002,7.218589E-002,7.218589E-002,7.218589E-002,7.218589E-002,7.218589E-002,7.218589E-002,7.218589E-002,7.218589E-002,
   **   ~~~   ** Air System Named = CENTRAL SYSTEM did not converge for energy
   **   ~~~   ** Check values should be zero. Most Recent values listed first.
   **   ~~~   ** Demand-to-Supply interface energy check value iteration history trace: 1430.570985,1430.570985,1430.570985,1430.570985,1430.570985,1430.570984,1430.570984,1430.570984,1430.570984,1430.570984,
   **   ~~~   ** Supply-to-demand interface deck 1 energy check value iteration history trace: 2540.857579,2540.857579,2540.857579,2540.857579,2540.857579,2540.857579,2540.857579,2540.857579,2540.857578,2540.857578,
   ** Warning ** SimHVAC: Maximum iterations (20) exceeded for all HVAC loops, at ANNUAL, 04/18 12:23 - 12:30
   **   ~~~   ** The solution for one or more of the Air Loop HVAC systems did not appear to converge
   **   ~~~   ** Air System Named = CENTRAL SYSTEM did not converge for mass flow rate
   **   ~~~   ** Check values should be zero. Most Recent values listed first.
   **   ~~~   ** Demand-to-Supply interface mass flow rate check value iteration history trace: 7.694900E-002,7.694900E-002,7.694900E-002,7.694900E-002,7.694900E-002,7.694900E-002,7.694900E-002,7.694900E-002,7.694900E-002,7.694900E-002,
   **   ~~~   ** Supply-to-demand interface deck 1 mass flow rate check value iteration history trace: 7.694900E-002,7.694900E-002,7.694900E-002,7.694900E-002,7.694900E-002,7.694900E-002,7.694900E-002,7.694900E-002,7.694900E-002,7.694900E-002,
   **   ~~~   ** Air System Named = CENTRAL SYSTEM did not converge for energy
   **   ~~~   ** Check values should be zero. Most Recent values listed first.
   **   ~~~   ** Demand-to-Supply interface energy check value iteration history trace: 1519.824970,1519.824970,1519.824970,1519.824970,1519.824970,1519.824970,1519.824970,1519.824970,1519.824970,1519.824969,
   **   ~~~   ** Supply-to-demand interface deck 1 energy check value iteration history trace: 2621.496159,2621.496159,2621.496159,2621.496159,2621.496159,2621.496159,2621.496159,2621.496159,2621.496158,2621.496158,
   ** Warning ** SimHVAC: Maximum iterations (20) exceeded for all HVAC loops, at ANNUAL, 04/28 07:30 - 07:45
   **   ~~~   ** The solution for one or more of the Air Loop HVAC systems did not appear to converge
   **   ~~~   ** Air System Named = CENTRAL SYSTEM did not converge for mass flow rate
   **   ~~~   ** Check values should be zero. Most Recent values listed first.
   **   ~~~   ** Demand-to-Supply interface mass flow rate check value iteration history trace: 6.720362E-002,6.720362E-002,6.720362E-002,6.720362E-002,6.720362E-002,6.720362E-002,6.720362E-002,6.720362E-002,6.720362E-002,6.720362E-002,
   **   ~~~   ** Supply-to-demand interface deck 1 mass flow rate check value iteration history trace: 6.720362E-002,6.720362E-002,6.720362E-002,6.720362E-002,6.720362E-002,6.720362E-002,6.720362E-002,6.720362E-002,6.720362E-002,6.720362E-002,
   **   ~~~   ** Air System Named = CENTRAL SYSTEM did not converge for energy
   **   ~~~   ** Check values should be zero. Most Recent values listed first.
   **   ~~~   ** Demand-to-Supply interface energy check value iteration history trace: 1331.801382,1331.801382,1331.801382,1331.801382,1331.801382,1331.801382,1331.801382,1331.801381,1331.801381,1331.801381,
   **   ~~~   ** Supply-to-demand interface deck 1 energy check value iteration history trace: 2277.560798,2277.560798,2277.560798,2277.560798,2277.560798,2277.560798,2277.560798,2277.560798,2277.560797,2277.560797,
   ** Warning ** SimHVAC: Maximum iterations (20) exceeded for all HVAC loops, at ANNUAL, 04/28 08:15 - 08:20
   **   ~~~   ** The solution for one or more of the Air Loop HVAC systems did not appear to converge
   **   ~~~   ** Air System Named = CENTRAL SYSTEM did not converge for mass flow rate
   **   ~~~   ** Check values should be zero. Most Recent values listed first.
   **   ~~~   ** Demand-to-Supply interface mass flow rate check value iteration history trace: 6.618776E-002,6.618776E-002,6.618776E-002,6.618776E-002,6.618776E-002,6.618776E-002,6.618776E-002,6.618776E-002,6.618776E-002,6.618776E-002,
   **   ~~~   ** Supply-to-demand interface deck 1 mass flow rate check value iteration history trace: 6.618776E-002,6.618776E-002,6.618776E-002,6.618776E-002,6.618776E-002,6.618776E-002,6.618776E-002,6.618776E-002,6.618776E-002,6.618776E-002,
   **   ~~~   ** Air System Named = CENTRAL SYSTEM did not converge for energy
   **   ~~~   ** Check values should be zero. Most Recent values listed first.
   **   ~~~   ** Demand-to-Supply interface energy check value iteration history trace: 1307.791379,1307.791379,1307.791379,1307.791379,1307.791379,1307.791379,1307.791378,1307.791378,1307.791378,1307.791378,
   **   ~~~   ** Supply-to-demand interface deck 1 energy check value iteration history trace: 2255.327733,2255.327733,2255.327733,2255.327733,2255.327733,2255.327733,2255.327732,2255.327732,2255.327732,2255.327732,
   ** Warning ** SimHVAC: Maximum iterations (20) exceeded for all HVAC loops, at ANNUAL, 04/29 09:45 - 10:00
   **   ~~~   ** The solution for one or more of the Air Loop HVAC systems did not appear to converge
   **   ~~~   ** Air System Named = CENTRAL SYSTEM did not converge for mass flow rate
   **   ~~~   ** Check values should be zero. Most Recent values listed first.
   **   ~~~   ** Demand-to-Supply interface mass flow rate check value iteration history trace: 7.695013E-002,7.695013E-002,7.695013E-002,7.695013E-002,7.695013E-002,7.695013E-002,7.695013E-002,7.695013E-002,7.695013E-002,7.695013E-002,
   **   ~~~   ** Supply-to-demand interface deck 1 mass flow rate check value iteration history trace: 7.695013E-002,7.695013E-002,7.695013E-002,7.695013E-002,7.695013E-002,7.695013E-002,7.695013E-002,7.695013E-002,7.695013E-002,7.695013E-002,
   **   ~~~   ** Air System Named = CENTRAL SYSTEM did not converge for energy
   **   ~~~   ** Check values should be zero. Most Recent values listed first.
   **   ~~~   ** Demand-to-Supply interface energy check value iteration history trace: 1524.119455,1524.119455,1524.119455,1524.119455,1524.119455,1524.119455,1524.119455,1524.119455,1524.119455,1524.119455,
   **   ~~~   ** Supply-to-demand interface deck 1 energy check value iteration history trace: 2632.591214,2632.591214,2632.591214,2632.591214,2632.591214,2632.591213,2632.591213,2632.591213,2632.591213,2632.591213,
   ** Warning ** SimHVAC: Maximum iterations (20) exceeded for all HVAC loops, at ANNUAL, 05/01 00:15 - 00:22
   **   ~~~   ** The solution for one or more of the Air Loop HVAC systems did not appear to converge
   **   ~~~   ** Air System Named = CENTRAL SYSTEM did not converge for mass flow rate
   **   ~~~   ** Check values should be zero. Most Recent values listed first.
   **   ~~~   ** Demand-to-Supply interface mass flow rate check value iteration history trace: 7.663039E-002,7.663039E-002,7.663039E-002,7.663039E-002,7.663039E-002,7.663039E-002,7.663039E-002,7.663039E-002,7.663039E-002,7.663039E-002,
   **   ~~~   ** Supply-to-demand interface deck 1 mass flow rate check value iteration history trace: 7.663039E-002,7.663039E-002,7.663039E-002,7.663039E-002,7.663039E-002,7.663039E-002,7.663039E-002,7.663039E-002,7.663039E-002,7.663039E-002,
   **   ~~~   ** Air System Named = CENTRAL SYSTEM did not converge for energy
   **   ~~~   ** Check values should be zero. Most Recent values listed first.
   **   ~~~   ** Demand-to-Supply interface energy check value iteration history trace: 1431.058750,1431.058750,1431.058750,1431.058750,1431.058750,1431.058750,1431.058749,1431.058749,1431.058749,1431.058749,
   **   ~~~   ** Supply-to-demand interface deck 1 energy check value iteration history trace: 2232.381257,2232.381257,2232.381257,2232.381257,2232.381257,2232.381256,2232.381256,2232.381256,2232.381256,2232.381256,
   ** Warning ** SimHVAC: Maximum iterations (20) exceeded for all HVAC loops, at ANNUAL, 05/17 08:33 - 08:36
   **   ~~~   ** The solution for one or more of the Air Loop HVAC systems did not appear to converge
   **   ~~~   ** Air System Named = CENTRAL SYSTEM did not converge for mass flow rate
   **   ~~~   ** Check values should be zero. Most Recent values listed first.
   **   ~~~   ** Demand-to-Supply interface mass flow rate check value iteration history trace: 6.314451E-002,6.314451E-002,6.314451E-002,6.314451E-002,6.314451E-002,6.314451E-002,6.314451E-002,6.314451E-002,6.314451E-002,6.314451E-002,
   **   ~~~   ** Supply-to-demand interface deck 1 mass flow rate check value iteration history trace: 6.314451E-002,6.314451E-002,6.314451E-002,6.314451E-002,6.314451E-002,6.314451E-002,6.314451E-002,6.314451E-002,6.314451E-002,6.314451E-002,
   **   ~~~   ** Air System Named = CENTRAL SYSTEM did not converge for energy
   **   ~~~   ** Check values should be zero. Most Recent values listed first.
   **   ~~~   ** Demand-to-Supply interface energy check value iteration history trace: 1247.830097,1247.830097,1247.830096,1247.830096,1247.830096,1247.830096,1247.830096,1247.830096,1247.830096,1247.830096,
   **   ~~~   ** Supply-to-demand interface deck 1 energy check value iteration history trace: 2288.793411,2288.793411,2288.793411,2288.793411,2288.793411,2288.793411,2288.793411,2288.793411,2288.793411,2288.793410,
   ** Warning ** SimHVAC: Maximum iterations (20) exceeded for all HVAC loops, at ANNUAL, 06/29 23:53 - 24:00
   **   ~~~   ** The solution for one or more of the Air Loop HVAC systems did not appear to converge
   **   ~~~   ** Air System Named = CENTRAL SYSTEM did not converge for mass flow rate
   **   ~~~   ** Check values should be zero. Most Recent values listed first.
   **   ~~~   ** Demand-to-Supply interface mass flow rate check value iteration history trace: 7.115185E-002,7.115185E-002,7.115185E-002,7.115185E-002,7.115185E-002,7.115185E-002,7.115185E-002,7.115185E-002,7.115185E-002,7.115185E-002,
   **   ~~~   ** Supply-to-demand interface deck 1 mass flow rate check value iteration history trace: 7.115185E-002,7.115185E-002,7.115185E-002,7.115185E-002,7.115185E-002,7.115185E-002,7.115185E-002,7.115185E-002,7.115185E-002,7.115185E-002,
   **   ~~~   ** Air System Named = CENTRAL SYSTEM did not converge for energy
   **   ~~~   ** Check values should be zero. Most Recent values listed first.
   **   ~~~   ** Demand-to-Supply interface energy check value iteration history trace: 1752.395663,1752.395663,1752.395663,1752.395663,1752.395663,1752.395664,1752.395664,1752.395664,1752.395664,1752.395665,
   **   ~~~   ** Supply-to-demand interface deck 1 energy check value iteration history trace: 778.793351,778.793352,778.793352,778.793352,778.793352,778.793352,778.793352,778.793352,778.793352,778.793352,
   ************* Simulation Error Summary *************
   ** Warning ** The following Report Variables were requested but not generated -- check.rdd file
   **   ~~~   ** Either the IDF did not contain these elements, the variable name is misspelled,
   **   ~~~   ** or the requested variable is an advanced output which requires Output : Diagnostics, DisplayAdvancedReportVariables;
   ************* Key=*, VarName=BASEBOARD TOTAL HEATING ENERGY, Frequency=
   ************* Key=*, VarName=WATER HEATER NATURALGAS ENERGY, Frequency=
   ************* Key=*, VarName=COOLING COIL TOTAL HEATING ENERGY, Frequency=
   ************* There are 34 unused schedules in input.
   ************* There are 388 unused week schedules in input.
   ************* There are 396 unused day schedules in input.
   ************* Use Output:Diagnostics,DisplayUnusedSchedules; to see them.
   *************
   ************* ===== Recurring Error Summary =====
   ************* The following recurring error messages occurred.
   *************
   *************  ** Warning ** "TOTAL HOT WATER LOAD" - Target water temperature should be less than or equal to the hot water temperature error continues...
   *************  **   ~~~   **   This error occurred 125763 total times;
   *************  **   ~~~   **   during Warmup 0 times;
   *************  **   ~~~   **   during Sizing 0 times.
   *************  **   ~~~   **   Max=18.500152  Min=4.232762E-004
   *************
   *************  ** Warning ** SimHVAC: Exceeding Maximum iterations for all HVAC loops, during ANNUAL continues
   *************  **   ~~~   **   This error occurred 15 total times;
   *************  **   ~~~   **   during Warmup 0 times;
   *************  **   ~~~   **   during Sizing 0 times.
   *************
   *************
   ************* ===== Final Error Summary =====
   ************* The following error categories occurred.  Consider correcting or noting.
   ************* Nominally Unused Constructions
   ************* ..The nominally unused constructions warning is provided to alert you to potential conditions that can cause
   ************* ..extra time during simulation. Each construction is calculated by the algorithm indicated in the HeatBalanceAlgorithm
   ************* ..object. You may remove the constructions indicated (when you use the DisplayExtraWarnings option).
   *************
   ************* EnergyPlus Warmup Error Summary. During Warmup: 0 Warning; 0 Severe Errors.
   ************* EnergyPlus Sizing Error Summary. During Sizing: 4 Warning; 0 Severe Errors.
   ************* EnergyPlus Completed Successfully-- 125809 Warning; 0 Severe Errors; Elapsed Time=00hr 01min 23.64sec
