Program Version,EnergyPlus, Version 22.2.0-c249759bad, YMD=2023.09.01 20:12,
   ************* Beginning Zone Sizing Calculations
   ** Warning ** ProcessScheduleInput: Schedule:Constant="ALWAYS ON DISCRETE", Schedule Type Limits Name="ONOFF" not found -- will not be validated
   ** Warning ** Foundation:Kiva="KIVA FOUNDATION", no Interior Horizontal Insulation Material Name defined
   **   ~~~   ** Interior Horizontal Insulation Depth will not be used.
   ** Warning ** CheckUsedConstructions: There are 15 nominally unused constructions in input.
   **   ~~~   ** Each Unused construction is shown.
   ************* Construction=INTERIOR FLOOR
   ************* Construction=INTERIOR WINDOW
   ************* Construction=EXTERIOR DOOR
   ************* Construction=INTERIOR DOOR
   ************* Construction=GABLE CONSTRUCTION
   ************* Construction=CRAWL_FLOOR
   ************* Construction=INSULATED PIPE
   ************* Construction=PLAIN PIPE
   ************* Construction=TDD PIPE
   ************* Construction=TDD DOME
   ************* Construction=TDD DIFFUSER
   ************* Construction=CRAWL WALL
   ************* Construction=CEILING-FLOOR-LAYER
   ************* Construction=SLAB CONSTRUCTION W FULL R10 INSULATION
   ************* Construction=SLAB CONSTRUCTION W FULL R5 INSULATION
   ** Warning ** GetDXCoils: Coil:Heating:DX:SingleSpeed="DX_HEATING_COIL" curve values
   **   ~~~   ** ... Defrost Energy Input Ratio Function of Temperature Curve Name = DEFROSTEIR output is not equal to 1.0 (+ or - 10%) at rated conditions.
   **   ~~~   ** ... Curve output at rated conditions = 0.152
   ************* Beginning System Sizing Calculations
   ************* Beginning Plant Sizing Calculations
   ** Warning ** Coil:WaterHeating:AirToWaterHeatPump:Wrapped "HEAT PUMP WATER HEATER EVAPORATOR": Rated air volume flow rate per watt of rated total water heating capacity is out of range
   **   ~~~   ** Min Rated Vol Flow Per Watt=[4.027E-005], Rated Vol Flow Per Watt=[1.510E-004], Max Rated Vol Flow Per Watt=[8.056E-005]. See Input-Output Reference Manual for valid range.
   ************* SizeFan: : Potential issue with equipment sizing for Fan:OnOff HEAT PUMP WATER HEATER FAN
   **   ~~~   ** User-Specified Maximum Flow Rate [m3/s] = 0.22653
   **   ~~~   ** differs from Design Size Maximum Flow Rate [m3/s] = 7.55250E-002
   **   ~~~   ** This may, or may not, indicate mismatched component sizes.
   **   ~~~   ** Verify that the value entered is intended and is consistent with other components.
   ** Warning ** Water heater = WATER HEATER TANK:  Recovery Efficiency and Energy Factor could not be calculated during the test for standard ratings
   **   ~~~   ** Setpoint was never recovered and/or heater never turned on
   ** Warning ** Check input. Pump nominal power or motor efficiency is set to 0, for pump=MAINS PRESSURE
   ** Warning ** AirflowNetwork::Solver::validate_distribution: Heat pump water heater is simulated along with an AirflowNetwork but is not included in the AirflowNetwork.
   ** Warning ** Output:Meter: invalid Key Name="ELECTRIC_RANGE:INTERIOREQUIPMENT:ELECTRICITY" - not found.
   ** Warning ** Output:Meter: invalid Key Name="ELECTRIC_DRYER:INTERIOREQUIPMENT:ELECTRICITY" - not found.
   ** Warning ** Output:Meter: invalid Key Name="HEATRECOVERY:ELECTRICITY" - not found.
   ** Warning ** Output:Meter: invalid Key Name="HEATING:NATURALGAS" - not found.
   ** Warning ** Output:Meter: invalid Key Name="WATERSYSTEMS:NATURALGAS" - not found.
   ** Warning ** Output:Meter: invalid Key Name="PROPANE:FACILITY" - not found.
   ** Warning ** Output:Meter: invalid Key Name="HEATING:PROPANE" - not found.
   ************* Testing Individual Branch Integrity
   ************* All Branches passed integrity testing
   ************* Testing Individual Supply Air Path Integrity
   ************* All Supply Air Paths passed integrity testing
   ************* Testing Individual Return Air Path Integrity
   ************* All Return Air Paths passed integrity testing
   ************* No node connection errors were found.
   ************* Beginning Simulation
   ** Warning ** CalcEquipmentFlowRates: "TOTAL HOT WATER LOAD" - Target water temperature is greater than the hot water temperature by (4.58 C)
   **   ~~~   **  Environment=EXTREME_WINTER, at Simulation time=01/08 07:00 - 07:15
   **   ~~~   ** ...target water temperature     = 53.33 C
   **   ~~~   ** ...hot water temperature        = 48.75 C
   **   ~~~   ** ...Target water temperature should be less than or equal to the hot water temperature. Verify temperature setpoints and schedules.
   ** Severe  ** CheckWarmupConvergence: Loads Initialization, Zone="ATTIC" did not converge after 25 warmup days.
   **   ~~~   ** See Warmup Convergence Information in .eio file for details.
   **   ~~~   ** ...Environment(RunPeriod)="ANNUAL"
   **   ~~~   ** ..Max Temp Comparison = 8.32E-002 vs Temperature Convergence Tolerance=5.00E-002 - Fail Convergence
   **   ~~~   ** ..Min Temp Comparison = 3.82E-003 vs Temperature Convergence Tolerance=5.00E-002 - Pass Convergence
   **   ~~~   ** ..Max Heat Load Comparison = 0.0000 vs Loads Convergence Tolerance=5.00E-002 - Pass Convergence
   **   ~~~   ** ..Max Cool Load Comparison = 0.0000 vs Loads Convergence Tolerance=5.00E-002 - Pass Convergence
   ** Warning ** SimHVAC: Maximum iterations (20) exceeded for all HVAC loops, at ANNUAL, 01/24 12:00 - 12:08
   **   ~~~   ** The solution for one or more of the Air Loop HVAC systems did not appear to converge
   **   ~~~   ** Air System Named = CENTRAL SYSTEM did not converge for mass flow rate
   **   ~~~   ** Check values should be zero. Most Recent values listed first.
   **   ~~~   ** Demand-to-Supply interface mass flow rate check value iteration history trace: 7.897362E-002,7.897362E-002,7.897362E-002,7.897362E-002,7.897362E-002,7.897362E-002,7.897362E-002,7.897362E-002,7.897362E-002,7.897362E-002,
   **   ~~~   ** Supply-to-demand interface deck 1 mass flow rate check value iteration history trace: 7.897362E-002,7.897362E-002,7.897362E-002,7.897362E-002,7.897362E-002,7.897362E-002,7.897362E-002,7.897362E-002,7.897362E-002,7.897362E-002,
   **   ~~~   ** Air System Named = CENTRAL SYSTEM did not converge for energy
   **   ~~~   ** Check values should be zero. Most Recent values listed first.
   **   ~~~   ** Demand-to-Supply interface energy check value iteration history trace: 1564.184881,1564.184881,1564.184881,1564.184881,1564.184881,1564.184881,1564.184881,1564.184881,1564.184881,1564.184881,
   **   ~~~   ** Supply-to-demand interface deck 1 energy check value iteration history trace: 2667.788226,2667.788226,2667.788226,2667.788226,2667.788226,2667.788226,2667.788226,2667.788225,2667.788225,2667.788225,
   ** Warning ** SimHVAC: Maximum iterations (20) exceeded for all HVAC loops, at ANNUAL, 02/12 14:15 - 14:30
   **   ~~~   ** The solution for one or more of the Air Loop HVAC systems did not appear to converge
   **   ~~~   ** Air System Named = CENTRAL SYSTEM did not converge for mass flow rate
   **   ~~~   ** Check values should be zero. Most Recent values listed first.
   **   ~~~   ** Demand-to-Supply interface mass flow rate check value iteration history trace: 5.424519E-002,5.424519E-002,5.424519E-002,5.424519E-002,5.424519E-002,5.424519E-002,5.424519E-002,5.424519E-002,5.424519E-002,5.424519E-002,
   **   ~~~   ** Supply-to-demand interface deck 1 mass flow rate check value iteration history trace: 5.424519E-002,5.424519E-002,5.424519E-002,5.424519E-002,5.424519E-002,5.424519E-002,5.424519E-002,5.424519E-002,5.424519E-002,5.424519E-002,
   **   ~~~   ** Air System Named = CENTRAL SYSTEM did not converge for energy
   **   ~~~   ** Check values should be zero. Most Recent values listed first.
   **   ~~~   ** Demand-to-Supply interface energy check value iteration history trace: 1075.782475,1075.782475,1075.782475,1075.782474,1075.782474,1075.782474,1075.782474,1075.782474,1075.782474,1075.782474,
   **   ~~~   ** Supply-to-demand interface deck 1 energy check value iteration history trace: 1653.580963,1653.580963,1653.580963,1653.580963,1653.580963,1653.580962,1653.580962,1653.580962,1653.580962,1653.580962,
   ** Warning ** SimHVAC: Maximum iterations (20) exceeded for all HVAC loops, at ANNUAL, 02/14 11:15 - 11:30
   **   ~~~   ** The solution for one or more of the Air Loop HVAC systems did not appear to converge
   **   ~~~   ** Air System Named = CENTRAL SYSTEM did not converge for mass flow rate
   **   ~~~   ** Check values should be zero. Most Recent values listed first.
   **   ~~~   ** Demand-to-Supply interface mass flow rate check value iteration history trace: 9.737122E-002,9.737122E-002,9.737122E-002,9.737122E-002,9.737122E-002,9.737122E-002,9.737122E-002,9.737122E-002,9.737122E-002,9.737122E-002,
   **   ~~~   ** Supply-to-demand interface deck 1 mass flow rate check value iteration history trace: 9.737122E-002,9.737122E-002,9.737122E-002,9.737122E-002,9.737122E-002,9.737122E-002,9.737122E-002,9.737122E-002,9.737122E-002,9.737122E-002,
   **   ~~~   ** Air System Named = CENTRAL SYSTEM did not converge for energy
   **   ~~~   ** Check values should be zero. Most Recent values listed first.
   **   ~~~   ** Demand-to-Supply interface energy check value iteration history trace: 1915.062255,1915.062255,1915.062255,1915.062254,1915.062254,1915.062254,1915.062254,1915.062254,1915.062254,1915.062254,
   **   ~~~   ** Supply-to-demand interface deck 1 energy check value iteration history trace: 3077.486760,3077.486760,3077.486760,3077.486760,3077.486759,3077.486759,3077.486759,3077.486759,3077.486759,3077.486759,
   ** Warning ** SimHVAC: Maximum iterations (20) exceeded for all HVAC loops, at ANNUAL, 02/18 10:30 - 10:45
   **   ~~~   ** The solution for one or more of the Air Loop HVAC systems did not appear to converge
   **   ~~~   ** Air System Named = CENTRAL SYSTEM did not converge for mass flow rate
   **   ~~~   ** Check values should be zero. Most Recent values listed first.
   **   ~~~   ** Demand-to-Supply interface mass flow rate check value iteration history trace: 7.438851E-002,7.438851E-002,7.438851E-002,7.438851E-002,7.438851E-002,7.438851E-002,7.438851E-002,7.438851E-002,7.438851E-002,7.438851E-002,
   **   ~~~   ** Supply-to-demand interface deck 1 mass flow rate check value iteration history trace: 7.438851E-002,7.438851E-002,7.438851E-002,7.438851E-002,7.438851E-002,7.438851E-002,7.438851E-002,7.438851E-002,7.438851E-002,7.438851E-002,
   **   ~~~   ** Air System Named = CENTRAL SYSTEM did not converge for energy
   **   ~~~   ** Check values should be zero. Most Recent values listed first.
   **   ~~~   ** Demand-to-Supply interface energy check value iteration history trace: 1470.900305,1470.900305,1470.900305,1470.900305,1470.900305,1470.900305,1470.900305,1470.900305,1470.900304,1470.900304,
   **   ~~~   ** Supply-to-demand interface deck 1 energy check value iteration history trace: 2525.377000,2525.377000,2525.377000,2525.377000,2525.377000,2525.377000,2525.377000,2525.376999,2525.376999,2525.376999,
   ** Warning ** SimHVAC: Maximum iterations (20) exceeded for all HVAC loops, at ANNUAL, 03/17 08:40 - 08:45
   **   ~~~   ** The solution for one or more of the Air Loop HVAC systems did not appear to converge
   **   ~~~   ** Air System Named = CENTRAL SYSTEM did not converge for mass flow rate
   **   ~~~   ** Check values should be zero. Most Recent values listed first.
   **   ~~~   ** Demand-to-Supply interface mass flow rate check value iteration history trace: 5.344339E-002,5.344339E-002,5.344339E-002,5.344339E-002,5.344339E-002,5.344339E-002,5.344339E-002,5.344339E-002,5.344339E-002,5.344339E-002,
   **   ~~~   ** Supply-to-demand interface deck 1 mass flow rate check value iteration history trace: 5.344339E-002,5.344339E-002,5.344339E-002,5.344339E-002,5.344339E-002,5.344339E-002,5.344339E-002,5.344339E-002,5.344339E-002,5.344339E-002,
   **   ~~~   ** Air System Named = CENTRAL SYSTEM did not converge for energy
   **   ~~~   ** Check values should be zero. Most Recent values listed first.
   **   ~~~   ** Demand-to-Supply interface energy check value iteration history trace: 1052.450410,1052.450410,1052.450410,1052.450410,1052.450410,1052.450410,1052.450410,1052.450410,1052.450410,1052.450410,
   **   ~~~   ** Supply-to-demand interface deck 1 energy check value iteration history trace: 1982.196799,1982.196799,1982.196799,1982.196799,1982.196799,1982.196799,1982.196799,1982.196799,1982.196798,1982.196798,
   ** Warning ** SimHVAC: Maximum iterations (20) exceeded for all HVAC loops, at ANNUAL, 03/18 11:15 - 11:20
   **   ~~~   ** The solution for one or more of the Air Loop HVAC systems did not appear to converge
   **   ~~~   ** Air System Named = CENTRAL SYSTEM did not converge for mass flow rate
   **   ~~~   ** Check values should be zero. Most Recent values listed first.
   **   ~~~   ** Demand-to-Supply interface mass flow rate check value iteration history trace: 5.656968E-002,5.656968E-002,5.656968E-002,5.656968E-002,5.656968E-002,5.656968E-002,5.656968E-002,5.656968E-002,5.656968E-002,5.656968E-002,
   **   ~~~   ** Supply-to-demand interface deck 1 mass flow rate check value iteration history trace: 5.656968E-002,5.656968E-002,5.656968E-002,5.656968E-002,5.656968E-002,5.656968E-002,5.656968E-002,5.656968E-002,5.656968E-002,5.656968E-002,
   **   ~~~   ** Air System Named = CENTRAL SYSTEM did not converge for energy
   **   ~~~   ** Check values should be zero. Most Recent values listed first.
   **   ~~~   ** Demand-to-Supply interface energy check value iteration history trace: 1116.065254,1116.065254,1116.065253,1116.065253,1116.065253,1116.065253,1116.065253,1116.065253,1116.065253,1116.065253,
   **   ~~~   ** Supply-to-demand interface deck 1 energy check value iteration history trace: 2045.884448,2045.884448,2045.884448,2045.884448,2045.884448,2045.884447,2045.884447,2045.884447,2045.884447,2045.884447,
   ** Warning ** SimHVAC: Maximum iterations (20) exceeded for all HVAC loops, at ANNUAL, 03/19 11:30 - 11:34
   **   ~~~   ** The solution for one or more of the Air Loop HVAC systems did not appear to converge
   **   ~~~   ** Air System Named = CENTRAL SYSTEM did not converge for mass flow rate
   **   ~~~   ** Check values should be zero. Most Recent values listed first.
   **   ~~~   ** Demand-to-Supply interface mass flow rate check value iteration history trace: 8.965975E-002,8.965975E-002,8.965975E-002,8.965975E-002,8.965975E-002,8.965975E-002,8.965975E-002,8.965975E-002,8.965975E-002,8.965975E-002,
   **   ~~~   ** Supply-to-demand interface deck 1 mass flow rate check value iteration history trace: 8.965975E-002,8.965975E-002,8.965975E-002,8.965975E-002,8.965975E-002,8.965975E-002,8.965975E-002,8.965975E-002,8.965975E-002,8.965975E-002,
   **   ~~~   ** Air System Named = CENTRAL SYSTEM did not converge for energy
   **   ~~~   ** Check values should be zero. Most Recent values listed first.
   **   ~~~   ** Demand-to-Supply interface energy check value iteration history trace: 1776.667892,1776.667892,1776.667892,1776.667892,1776.667892,1776.667892,1776.667892,1776.667892,1776.667892,1776.667891,
   **   ~~~   ** Supply-to-demand interface deck 1 energy check value iteration history trace: 2782.565826,2782.565826,2782.565826,2782.565826,2782.565826,2782.565826,2782.565826,2782.565825,2782.565825,2782.565825,
   ** Warning ** SimHVAC: Maximum iterations (20) exceeded for all HVAC loops, at ANNUAL, 03/20 17:15 - 17:20
   **   ~~~   ** The solution for one or more of the Air Loop HVAC systems did not appear to converge
   **   ~~~   ** Air System Named = CENTRAL SYSTEM did not converge for mass flow rate
   **   ~~~   ** Check values should be zero. Most Recent values listed first.
   **   ~~~   ** Demand-to-Supply interface mass flow rate check value iteration history trace: 9.281383E-002,9.281383E-002,9.281383E-002,9.281383E-002,9.281383E-002,9.281383E-002,9.281383E-002,9.281383E-002,9.281383E-002,9.281383E-002,
   **   ~~~   ** Supply-to-demand interface deck 1 mass flow rate check value iteration history trace: 9.281383E-002,9.281383E-002,9.281383E-002,9.281383E-002,9.281383E-002,9.281383E-002,9.281383E-002,9.281383E-002,9.281383E-002,9.281383E-002,
   **   ~~~   ** Air System Named = CENTRAL SYSTEM did not converge for energy
   **   ~~~   ** Check values should be zero. Most Recent values listed first.
   **   ~~~   ** Demand-to-Supply interface energy check value iteration history trace: 1834.150747,1834.150747,1834.150747,1834.150746,1834.150746,1834.150746,1834.150746,1834.150746,1834.150746,1834.150746,
   **   ~~~   ** Supply-to-demand interface deck 1 energy check value iteration history trace: 2808.063385,2808.063385,2808.063385,2808.063385,2808.063385,2808.063384,2808.063384,2808.063384,2808.063384,2808.063384,
   ** Warning ** SimHVAC: Maximum iterations (20) exceeded for all HVAC loops, at ANNUAL, 03/29 20:35 - 20:40
   **   ~~~   ** The solution for one or more of the Air Loop HVAC systems did not appear to converge
   **   ~~~   ** Air System Named = CENTRAL SYSTEM did not converge for mass flow rate
   **   ~~~   ** Check values should be zero. Most Recent values listed first.
   **   ~~~   ** Demand-to-Supply interface mass flow rate check value iteration history trace: 8.842640E-002,8.842640E-002,8.842640E-002,8.842640E-002,8.842640E-002,8.842640E-002,8.842640E-002,8.842640E-002,8.842640E-002,8.842640E-002,
   **   ~~~   ** Supply-to-demand interface deck 1 mass flow rate check value iteration history trace: 8.842640E-002,8.842640E-002,8.842640E-002,8.842640E-002,8.842640E-002,8.842640E-002,8.842640E-002,8.842640E-002,8.842640E-002,8.842640E-002,
   **   ~~~   ** Air System Named = CENTRAL SYSTEM did not converge for energy
   **   ~~~   ** Check values should be zero. Most Recent values listed first.
   **   ~~~   ** Demand-to-Supply interface energy check value iteration history trace: 1764.785213,1764.785213,1764.785212,1764.785212,1764.785212,1764.785212,1764.785212,1764.785212,1764.785212,1764.785212,
   **   ~~~   ** Supply-to-demand interface deck 1 energy check value iteration history trace: 2782.274108,2782.274108,2782.274108,2782.274108,2782.274107,2782.274107,2782.274107,2782.274107,2782.274107,2782.274107,
   ** Warning ** SimHVAC: Maximum iterations (20) exceeded for all HVAC loops, at ANNUAL, 03/30 22:25 - 22:30
   **   ~~~   ** The solution for one or more of the Air Loop HVAC systems did not appear to converge
   **   ~~~   ** Air System Named = CENTRAL SYSTEM did not converge for mass flow rate
   **   ~~~   ** Check values should be zero. Most Recent values listed first.
   **   ~~~   ** Demand-to-Supply interface mass flow rate check value iteration history trace: 9.707495E-002,9.707495E-002,9.707495E-002,9.707495E-002,9.707495E-002,9.707495E-002,9.707495E-002,9.707495E-002,9.707495E-002,9.707495E-002,
   **   ~~~   ** Supply-to-demand interface deck 1 mass flow rate check value iteration history trace: 9.707495E-002,9.707495E-002,9.707495E-002,9.707495E-002,9.707495E-002,9.707495E-002,9.707495E-002,9.707495E-002,9.707495E-002,9.707495E-002,
   **   ~~~   ** Air System Named = CENTRAL SYSTEM did not converge for energy
   **   ~~~   ** Check values should be zero. Most Recent values listed first.
   **   ~~~   ** Demand-to-Supply interface energy check value iteration history trace: 1808.780809,1808.780809,1808.780809,1808.780809,1808.780809,1808.780809,1808.780808,1808.780808,1808.780808,1808.780808,
   **   ~~~   ** Supply-to-demand interface deck 1 energy check value iteration history trace: 2804.313639,2804.313639,2804.313639,2804.313638,2804.313638,2804.313638,2804.313638,2804.313638,2804.313638,2804.313637,
   ** Warning ** SimHVAC: Maximum iterations (20) exceeded for all HVAC loops, at ANNUAL, 04/20 10:30 - 10:35
   **   ~~~   ** The solution for one or more of the Air Loop HVAC systems did not appear to converge
   **   ~~~   ** Air System Named = CENTRAL SYSTEM did not converge for mass flow rate
   **   ~~~   ** Check values should be zero. Most Recent values listed first.
   **   ~~~   ** Demand-to-Supply interface mass flow rate check value iteration history trace: 6.747156E-002,6.747156E-002,6.747156E-002,6.747156E-002,6.747156E-002,6.747156E-002,6.747156E-002,6.747156E-002,6.747156E-002,6.747156E-002,
   **   ~~~   ** Supply-to-demand interface deck 1 mass flow rate check value iteration history trace: 6.747156E-002,6.747156E-002,6.747156E-002,6.747156E-002,6.747156E-002,6.747156E-002,6.747156E-002,6.747156E-002,6.747156E-002,6.747156E-002,
   **   ~~~   ** Air System Named = CENTRAL SYSTEM did not converge for energy
   **   ~~~   ** Check values should be zero. Most Recent values listed first.
   **   ~~~   ** Demand-to-Supply interface energy check value iteration history trace: 1336.843671,1336.843671,1336.843671,1336.843671,1336.843671,1336.843671,1336.843671,1336.843671,1336.843671,1336.843671,
   **   ~~~   ** Supply-to-demand interface deck 1 energy check value iteration history trace: 2363.430583,2363.430583,2363.430583,2363.430583,2363.430583,2363.430582,2363.430582,2363.430582,2363.430582,2363.430582,
   ** Warning ** SimHVAC: Maximum iterations (20) exceeded for all HVAC loops, at ANNUAL, 05/01 11:45 - 12:00
   **   ~~~   ** The solution for one or more of the Air Loop HVAC systems did not appear to converge
   **   ~~~   ** Air System Named = CENTRAL SYSTEM did not converge for mass flow rate
   **   ~~~   ** Check values should be zero. Most Recent values listed first.
   **   ~~~   ** Demand-to-Supply interface mass flow rate check value iteration history trace: 6.086432E-002,6.086432E-002,6.086432E-002,6.086432E-002,6.086432E-002,6.086432E-002,6.086432E-002,6.086432E-002,6.086432E-002,6.086432E-002,
   **   ~~~   ** Supply-to-demand interface deck 1 mass flow rate check value iteration history trace: 6.086432E-002,6.086432E-002,6.086432E-002,6.086432E-002,6.086432E-002,6.086432E-002,6.086432E-002,6.086432E-002,6.086432E-002,6.086432E-002,
   **   ~~~   ** Air System Named = CENTRAL SYSTEM did not converge for energy
   **   ~~~   ** Check values should be zero. Most Recent values listed first.
   **   ~~~   ** Demand-to-Supply interface energy check value iteration history trace: 1206.581232,1206.581232,1206.581232,1206.581232,1206.581232,1206.581232,1206.581232,1206.581232,1206.581231,1206.581231,
   **   ~~~   ** Supply-to-demand interface deck 1 energy check value iteration history trace: 2112.629087,2112.629087,2112.629087,2112.629087,2112.629087,2112.629087,2112.629087,2112.629087,2112.629086,2112.629086,
   ** Warning ** SimHVAC: Maximum iterations (20) exceeded for all HVAC loops, at ANNUAL, 06/13 07:45 - 08:00
   **   ~~~   ** The solution for one or more of the Air Loop HVAC systems did not appear to converge
   **   ~~~   ** Air System Named = CENTRAL SYSTEM did not converge for mass flow rate
   **   ~~~   ** Check values should be zero. Most Recent values listed first.
   **   ~~~   ** Demand-to-Supply interface mass flow rate check value iteration history trace: 0.105057,0.105057,0.105057,0.105057,0.105057,0.105057,0.105057,0.105057,0.105057,0.105057,
   **   ~~~   ** Supply-to-demand interface deck 1 mass flow rate check value iteration history trace: 0.105057,0.105057,0.105057,0.105057,0.105057,0.105057,0.105057,0.105057,0.105057,0.105057,
   **   ~~~   ** Air System Named = CENTRAL SYSTEM did not converge for energy
   **   ~~~   ** Check values should be zero. Most Recent values listed first.
   **   ~~~   ** Demand-to-Supply interface energy check value iteration history trace: 2478.730577,2478.730578,2478.730578,2478.730579,2478.730580,2478.730580,2478.730581,2478.730581,2478.730582,2478.730582,
   **   ~~~   ** Supply-to-demand interface deck 1 energy check value iteration history trace: 1343.999130,1343.999130,1343.999130,1343.999130,1343.999131,1343.999131,1343.999131,1343.999132,1343.999132,1343.999132,
   ** Warning ** SimHVAC: Maximum iterations (20) exceeded for all HVAC loops, at ANNUAL, 06/13 09:15 - 09:30
   **   ~~~   ** The solution for one or more of the Air Loop HVAC systems did not appear to converge
   **   ~~~   ** Air System Named = CENTRAL SYSTEM did not converge for energy
   **   ~~~   ** Check values should be zero. Most Recent values listed first.
   **   ~~~   ** Demand-to-Supply interface energy check value iteration history trace: 218.158702,218.158702,218.158702,218.158702,218.158702,218.158702,218.158702,218.158702,218.158702,218.158702,
   **   ~~~   ** Supply-to-demand interface deck 1 energy check value iteration history trace: 115.812531,115.812531,115.812531,115.812531,115.812531,115.812531,115.812531,115.812531,115.812531,115.812531,
   ************* Simulation Error Summary *************
   ** Warning ** The following Report Variables were requested but not generated -- check.rdd file
   **   ~~~   ** Either the IDF did not contain these elements, the variable name is misspelled,
   **   ~~~   ** or the requested variable is an advanced output which requires Output : Diagnostics, DisplayAdvancedReportVariables;
   ************* Key=*, VarName=BASEBOARD TOTAL HEATING ENERGY, Frequency=
   ************* Key=*, VarName=WATER HEATER NATURALGAS ENERGY, Frequency=
   ************* Key=*, VarName=COOLING COIL TOTAL HEATING ENERGY, Frequency=
   ************* There are 34 unused schedules in input.
   ************* There are 388 unused week schedules in input.
   ************* There are 396 unused day schedules in input.
   ************* Use Output:Diagnostics,DisplayUnusedSchedules; to see them.
   *************
   ************* ===== Recurring Error Summary =====
   ************* The following recurring error messages occurred.
   *************
   *************  ** Warning ** "TOTAL HOT WATER LOAD" - Target water temperature should be less than or equal to the hot water temperature error continues...
   *************  **   ~~~   **   This error occurred 130727 total times;
   *************  **   ~~~   **   during Warmup 0 times;
   *************  **   ~~~   **   during Sizing 0 times.
   *************  **   ~~~   **   Max=16.416946  Min=1.382996E-003
   *************
   *************  ** Warning ** SimHVAC: Exceeding Maximum iterations for all HVAC loops, during ANNUAL continues
   *************  **   ~~~   **   This error occurred 7 total times;
   *************  **   ~~~   **   during Warmup 0 times;
   *************  **   ~~~   **   during Sizing 0 times.
   *************
   *************
   ************* ===== Final Error Summary =====
   ************* The following error categories occurred.  Consider correcting or noting.
   ************* Loads Initialization did not Converge
   ************* ..1) very high thermal mass such as very thick concrete (solution: increase max number of warmup
   ************* ..   days in the BUILDING object);
   ************* ..2) moderate mass and inadequate space conditioning such that the building keeps getting warmer
   ************* ..   and warmer on successive days (solution: add HVAC, check building thermal properties,
   ************* ..   check if infiltration is included, make sure HVAC properly controlled);
   ************* ..3) a soil layer modeled below the concrete slab - (solution remove this layer and read about
   ************* ..   ground temperatures in the Auxiliary Programs document).
   ************* ..4) unreasonable (too small) limits in the BUILDING object for temperature (.4 default) or
   ************* ..   loads tolerances (.04 default)
   ************* Nominally Unused Constructions
   ************* ..The nominally unused constructions warning is provided to alert you to potential conditions that can cause
   ************* ..extra time during simulation. Each construction is calculated by the algorithm indicated in the HeatBalanceAlgorithm
   ************* ..object. You may remove the constructions indicated (when you use the DisplayExtraWarnings option).
   *************
   ************* EnergyPlus Warmup Error Summary. During Warmup: 0 Warning; 1 Severe Errors.
   ************* EnergyPlus Sizing Error Summary. During Sizing: 4 Warning; 0 Severe Errors.
   ************* EnergyPlus Completed Successfully-- 130765 Warning; 1 Severe Errors; Elapsed Time=00hr 01min 31.02sec
