Program Version,EnergyPlus, Version 22.2.0-c249759bad, YMD=2023.09.01 14:56,
   ************* Beginning Zone Sizing Calculations
   ** Warning ** ProcessScheduleInput: Schedule:Constant="ALWAYS ON DISCRETE", Schedule Type Limits Name="ONOFF" not found -- will not be validated
   ** Warning ** Foundation:Kiva="KIVA FOUNDATION", no Interior Horizontal Insulation Material Name defined
   **   ~~~   ** Interior Horizontal Insulation Depth will not be used.
   ** Warning ** CheckUsedConstructions: There are 15 nominally unused constructions in input.
   **   ~~~   ** Each Unused construction is shown.
   ************* Construction=INTERIOR FLOOR
   ************* Construction=INTERIOR WINDOW
   ************* Construction=EXTERIOR DOOR
   ************* Construction=INTERIOR DOOR
   ************* Construction=GABLE CONSTRUCTION
   ************* Construction=CRAWL_FLOOR
   ************* Construction=INSULATED PIPE
   ************* Construction=PLAIN PIPE
   ************* Construction=TDD PIPE
   ************* Construction=TDD DOME
   ************* Construction=TDD DIFFUSER
   ************* Construction=CRAWL WALL
   ************* Construction=CEILING-FLOOR-LAYER
   ************* Construction=SLAB CONSTRUCTION W FULL R10 INSULATION
   ************* Construction=SLAB CONSTRUCTION W FULL R5 INSULATION
   ** Warning ** GetDXCoils: Coil:Heating:DX:SingleSpeed="DX_HEATING_COIL" curve values
   **   ~~~   ** ... Defrost Energy Input Ratio Function of Temperature Curve Name = DEFROSTEIR output is not equal to 1.0 (+ or - 10%) at rated conditions.
   **   ~~~   ** ... Curve output at rated conditions = 0.152
   ************* Beginning System Sizing Calculations
   ************* Beginning Plant Sizing Calculations
   ** Warning ** SizeDXCoil Coil:Cooling:DX:SingleSpeed DX_COOLING_COIL
   **   ~~~   ** ...Gross Rated Total Cooling Capacity [W] will be limited by the maximum rated volume flow per rated total capacity ratio.
   **   ~~~   ** ...DX coil volume flow rate ( m3/s ) = 0.470975
   **   ~~~   ** ...Requested capacity ( W ) = 6913.047
   **   ~~~   ** ...Requested flow/capacity ratio ( m3/s/W ) = 6.812E-005
   **   ~~~   ** ...Maximum flow/capacity ratio ( m3/s/W ) = 6.041E-005
   **   ~~~   ** ...Adjusted capacity ( W ) = 7796.314
   ** Warning ** Coil:WaterHeating:AirToWaterHeatPump:Wrapped "HEAT PUMP WATER HEATER EVAPORATOR": Rated air volume flow rate per watt of rated total water heating capacity is out of range
   **   ~~~   ** Min Rated Vol Flow Per Watt=[4.027E-005], Rated Vol Flow Per Watt=[1.386E-004], Max Rated Vol Flow Per Watt=[8.056E-005]. See Input-Output Reference Manual for valid range.
   ** Warning ** Water heater = WATER HEATER TANK:  Recovery Efficiency and Energy Factor could not be calculated during the test for standard ratings
   **   ~~~   ** Setpoint was never recovered and/or heater never turned on
   ** Warning ** Check input. Pump nominal power or motor efficiency is set to 0, for pump=MAINS PRESSURE
   ** Warning ** Output:Meter: invalid Key Name="ELECTRIC_RANGE:INTERIOREQUIPMENT:ELECTRICITY" - not found.
   ** Warning ** Output:Meter: invalid Key Name="ELECTRIC_DRYER:INTERIOREQUIPMENT:ELECTRICITY" - not found.
   ** Warning ** Output:Meter: invalid Key Name="HEATRECOVERY:ELECTRICITY" - not found.
   ** Warning ** Output:Meter: invalid Key Name="HEATING:NATURALGAS" - not found.
   ** Warning ** Output:Meter: invalid Key Name="WATERSYSTEMS:NATURALGAS" - not found.
   ** Warning ** Output:Meter: invalid Key Name="PROPANE:FACILITY" - not found.
   ** Warning ** Output:Meter: invalid Key Name="HEATING:PROPANE" - not found.
   ************* Testing Individual Branch Integrity
   ************* All Branches passed integrity testing
   ************* Testing Individual Supply Air Path Integrity
   ************* All Supply Air Paths passed integrity testing
   ************* Testing Individual Return Air Path Integrity
   ************* All Return Air Paths passed integrity testing
   ************* No node connection errors were found.
   ************* Beginning Simulation
   ** Warning ** AirflowNetwork::Solver::validate_distribution: Heat pump water heater is simulated along with an AirflowNetwork but is not included in the AirflowNetwork.
   ** Warning ** CalcEquipmentFlowRates: "TOTAL HOT WATER LOAD" - Target water temperature is greater than the hot water temperature by (1.65 C)
   **   ~~~   **  Environment=EXTREME_WINTER, at Simulation time=01/06 06:00 - 06:15
   **   ~~~   ** ...target water temperature     = 53.33 C
   **   ~~~   ** ...hot water temperature        = 51.68 C
   **   ~~~   ** ...Target water temperature should be less than or equal to the hot water temperature. Verify temperature setpoints and schedules.
   ** Warning ** SimHVAC: Maximum iterations (20) exceeded for all HVAC loops, at EXTREME_WINTER, 01/10 16:45 - 16:52
   **   ~~~   ** The solution for one or more of the Air Loop HVAC systems did not appear to converge
   **   ~~~   ** Air System Named = CENTRAL SYSTEM did not converge for mass flow rate
   **   ~~~   ** Check values should be zero. Most Recent values listed first.
   **   ~~~   ** Demand-to-Supply interface mass flow rate check value iteration history trace: 2.585634E-002,2.585634E-002,2.585634E-002,2.585634E-002,2.585634E-002,2.585634E-002,2.585634E-002,2.585634E-002,2.585634E-002,2.585634E-002,
   **   ~~~   ** Supply-to-demand interface deck 1 mass flow rate check value iteration history trace: 2.585634E-002,2.585634E-002,2.585634E-002,2.585634E-002,2.585634E-002,2.585634E-002,2.585634E-002,2.585634E-002,2.585634E-002,2.585634E-002,
   **   ~~~   ** Air System Named = CENTRAL SYSTEM did not converge for energy
   **   ~~~   ** Check values should be zero. Most Recent values listed first.
   **   ~~~   ** Demand-to-Supply interface energy check value iteration history trace: 506.531652,506.531652,506.531651,506.531651,506.531651,506.531651,506.531651,506.531651,506.531651,506.531651,
   **   ~~~   ** Supply-to-demand interface deck 1 energy check value iteration history trace: 822.832122,822.832122,822.832122,822.832122,822.832122,822.832122,822.832122,822.832121,822.832121,822.832121,
   ** Warning ** SimHVAC: Maximum iterations (20) exceeded for all HVAC loops, at ANNUAL, 01/08 13:30 - 13:45
   **   ~~~   ** The solution for one or more of the Air Loop HVAC systems did not appear to converge
   **   ~~~   ** Air System Named = CENTRAL SYSTEM did not converge for mass flow rate
   **   ~~~   ** Check values should be zero. Most Recent values listed first.
   **   ~~~   ** Demand-to-Supply interface mass flow rate check value iteration history trace: 1.392129E-002,1.392129E-002,1.392129E-002,1.392129E-002,1.392129E-002,1.392129E-002,1.392129E-002,1.392129E-002,1.392129E-002,1.392129E-002,
   **   ~~~   ** Supply-to-demand interface deck 1 mass flow rate check value iteration history trace: 1.392129E-002,1.392129E-002,1.392129E-002,1.392129E-002,1.392129E-002,1.392129E-002,1.392129E-002,1.392129E-002,1.392129E-002,1.392129E-002,
   **   ~~~   ** Air System Named = CENTRAL SYSTEM did not converge for energy
   **   ~~~   ** Check values should be zero. Most Recent values listed first.
   **   ~~~   ** Demand-to-Supply interface energy check value iteration history trace: 275.536984,275.536984,275.536984,275.536984,275.536984,275.536984,275.536984,275.536984,275.536984,275.536984,
   **   ~~~   ** Supply-to-demand interface deck 1 energy check value iteration history trace: 479.307476,479.307476,479.307476,479.307476,479.307476,479.307476,479.307476,479.307476,479.307476,479.307476,
   ** Warning ** SimHVAC: Maximum iterations (20) exceeded for all HVAC loops, at ANNUAL, 03/05 12:15 - 12:30
   **   ~~~   ** The solution for one or more of the Air Loop HVAC systems did not appear to converge
   **   ~~~   ** Air System Named = CENTRAL SYSTEM did not converge for mass flow rate
   **   ~~~   ** Check values should be zero. Most Recent values listed first.
   **   ~~~   ** Demand-to-Supply interface mass flow rate check value iteration history trace: 5.364711E-002,5.364711E-002,5.364711E-002,5.364711E-002,5.364711E-002,5.364711E-002,5.364711E-002,5.364711E-002,5.364711E-002,5.364711E-002,
   **   ~~~   ** Supply-to-demand interface deck 1 mass flow rate check value iteration history trace: 5.364711E-002,5.364711E-002,5.364711E-002,5.364711E-002,5.364711E-002,5.364711E-002,5.364711E-002,5.364711E-002,5.364711E-002,5.364711E-002,
   **   ~~~   ** Air System Named = CENTRAL SYSTEM did not converge for energy
   **   ~~~   ** Check values should be zero. Most Recent values listed first.
   **   ~~~   ** Demand-to-Supply interface energy check value iteration history trace: 1063.089476,1063.089475,1063.089475,1063.089475,1063.089474,1063.089474,1063.089474,1063.089474,1063.089473,1063.089473,
   **   ~~~   ** Supply-to-demand interface deck 1 energy check value iteration history trace: 1918.236761,1918.236761,1918.236760,1918.236760,1918.236759,1918.236759,1918.236758,1918.236758,1918.236757,1918.236757,
   **   ~~~   ** Node named ZONE INLET NODE shows oscillating temperatures across iterations with a repeated value of 35.584206
   **   ~~~   ** Node named ZONE INLET NODE temperature [C] iteration history trace (most recent first): 35.584206,35.584205,35.584205,35.584205,35.584204,35.584204,35.584204,35.584203,35.584203,35.584203,
   ** Warning ** SimHVAC: Maximum iterations (20) exceeded for all HVAC loops, at ANNUAL, 04/01 09:15 - 09:30
   **   ~~~   ** The solution for one or more of the Air Loop HVAC systems did not appear to converge
   **   ~~~   ** Air System Named = CENTRAL SYSTEM did not converge for mass flow rate
   **   ~~~   ** Check values should be zero. Most Recent values listed first.
   **   ~~~   ** Demand-to-Supply interface mass flow rate check value iteration history trace: 7.649521E-002,7.649521E-002,7.649521E-002,7.649521E-002,7.649521E-002,7.649521E-002,7.649521E-002,7.649521E-002,7.649521E-002,7.649521E-002,
   **   ~~~   ** Supply-to-demand interface deck 1 mass flow rate check value iteration history trace: 7.649521E-002,7.649521E-002,7.649521E-002,7.649521E-002,7.649521E-002,7.649521E-002,7.649521E-002,7.649521E-002,7.649521E-002,7.649521E-002,
   **   ~~~   ** Air System Named = CENTRAL SYSTEM did not converge for energy
   **   ~~~   ** Check values should be zero. Most Recent values listed first.
   **   ~~~   ** Demand-to-Supply interface energy check value iteration history trace: 1515.888644,1515.888644,1515.888644,1515.888644,1515.888644,1515.888644,1515.888644,1515.888644,1515.888644,1515.888644,
   **   ~~~   ** Supply-to-demand interface deck 1 energy check value iteration history trace: 2768.765612,2768.765612,2768.765612,2768.765611,2768.765611,2768.765611,2768.765611,2768.765611,2768.765611,2768.765611,
   ** Warning ** SimHVAC: Maximum iterations (20) exceeded for all HVAC loops, at ANNUAL, 04/28 07:45 - 08:00
   **   ~~~   ** The solution for one or more of the Air Loop HVAC systems did not appear to converge
   **   ~~~   ** Air System Named = CENTRAL SYSTEM did not converge for mass flow rate
   **   ~~~   ** Check values should be zero. Most Recent values listed first.
   **   ~~~   ** Demand-to-Supply interface mass flow rate check value iteration history trace: 2.200864E-002,2.200864E-002,2.200864E-002,2.200864E-002,2.200864E-002,2.200864E-002,2.200864E-002,2.200864E-002,2.200864E-002,2.200864E-002,
   **   ~~~   ** Supply-to-demand interface deck 1 mass flow rate check value iteration history trace: 2.200864E-002,2.200864E-002,2.200864E-002,2.200864E-002,2.200864E-002,2.200864E-002,2.200864E-002,2.200864E-002,2.200864E-002,2.200864E-002,
   **   ~~~   ** Air System Named = CENTRAL SYSTEM did not converge for energy
   **   ~~~   ** Check values should be zero. Most Recent values listed first.
   **   ~~~   ** Demand-to-Supply interface energy check value iteration history trace: 436.142117,436.142117,436.142117,436.142117,436.142117,436.142117,436.142117,436.142117,436.142117,436.142117,
   **   ~~~   ** Supply-to-demand interface deck 1 energy check value iteration history trace: 796.577250,796.577250,796.577250,796.577250,796.577250,796.577249,796.577249,796.577249,796.577249,796.577249,
   ** Warning ** SimHVAC: Maximum iterations (20) exceeded for all HVAC loops, at ANNUAL, 05/07 10:30 - 10:45
   **   ~~~   ** The solution for one or more of the Air Loop HVAC systems did not appear to converge
   **   ~~~   ** Air System Named = CENTRAL SYSTEM did not converge for mass flow rate
   **   ~~~   ** Check values should be zero. Most Recent values listed first.
   **   ~~~   ** Demand-to-Supply interface mass flow rate check value iteration history trace: 5.613764E-002,5.613764E-002,5.613764E-002,5.613764E-002,5.613764E-002,5.613764E-002,5.613764E-002,5.613764E-002,5.613764E-002,5.613764E-002,
   **   ~~~   ** Supply-to-demand interface deck 1 mass flow rate check value iteration history trace: 5.613764E-002,5.613764E-002,5.613764E-002,5.613764E-002,5.613764E-002,5.613764E-002,5.613764E-002,5.613764E-002,5.613764E-002,5.613764E-002,
   **   ~~~   ** Air System Named = CENTRAL SYSTEM did not converge for energy
   **   ~~~   ** Check values should be zero. Most Recent values listed first.
   **   ~~~   ** Demand-to-Supply interface energy check value iteration history trace: 1091.114993,1091.114993,1091.114993,1091.114993,1091.114993,1091.114993,1091.114993,1091.114993,1091.114993,1091.114993,
   **   ~~~   ** Supply-to-demand interface deck 1 energy check value iteration history trace: 2050.374509,2050.374509,2050.374509,2050.374509,2050.374509,2050.374509,2050.374509,2050.374509,2050.374509,2050.374509,
   ** Warning ** SimHVAC: Maximum iterations (20) exceeded for all HVAC loops, at ANNUAL, 10/14 09:30 - 09:38
   **   ~~~   ** The solution for one or more of the Air Loop HVAC systems did not appear to converge
   **   ~~~   ** Air System Named = CENTRAL SYSTEM did not converge for mass flow rate
   **   ~~~   ** Check values should be zero. Most Recent values listed first.
   **   ~~~   ** Demand-to-Supply interface mass flow rate check value iteration history trace: 7.838416E-002,7.838416E-002,7.838416E-002,7.838416E-002,7.838416E-002,7.838416E-002,7.838416E-002,7.838416E-002,7.838416E-002,7.838416E-002,
   **   ~~~   ** Supply-to-demand interface deck 1 mass flow rate check value iteration history trace: 7.838416E-002,7.838416E-002,7.838416E-002,7.838416E-002,7.838416E-002,7.838416E-002,7.838416E-002,7.838416E-002,7.838416E-002,7.838416E-002,
   **   ~~~   ** Air System Named = CENTRAL SYSTEM did not converge for energy
   **   ~~~   ** Check values should be zero. Most Recent values listed first.
   **   ~~~   ** Demand-to-Supply interface energy check value iteration history trace: 1553.204117,1553.204116,1553.204116,1553.204116,1553.204115,1553.204115,1553.204115,1553.204115,1553.204114,1553.204114,
   **   ~~~   ** Supply-to-demand interface deck 1 energy check value iteration history trace: 2713.006747,2713.006746,2713.006746,2713.006745,2713.006745,2713.006745,2713.006744,2713.006744,2713.006743,2713.006743,
   **   ~~~   ** Node named ZONE INLET NODE shows oscillating temperatures across iterations with a repeated value of 34.444825
   **   ~~~   ** Node named ZONE INLET NODE temperature [C] iteration history trace (most recent first): 34.444825,34.444825,34.444825,34.444824,34.444824,34.444824,34.444824,34.444823,34.444823,34.444823,
   ** Warning ** SimHVAC: Maximum iterations (20) exceeded for all HVAC loops, at ANNUAL, 10/22 10:15 - 10:30
   **   ~~~   ** The solution for one or more of the Air Loop HVAC systems did not appear to converge
   **   ~~~   ** Air System Named = CENTRAL SYSTEM did not converge for mass flow rate
   **   ~~~   ** Check values should be zero. Most Recent values listed first.
   **   ~~~   ** Demand-to-Supply interface mass flow rate check value iteration history trace: 6.177582E-002,6.177582E-002,6.177582E-002,6.177582E-002,6.177582E-002,6.177582E-002,6.177582E-002,6.177582E-002,6.177582E-002,6.177582E-002,
   **   ~~~   ** Supply-to-demand interface deck 1 mass flow rate check value iteration history trace: 6.177582E-002,6.177582E-002,6.177582E-002,6.177582E-002,6.177582E-002,6.177582E-002,6.177582E-002,6.177582E-002,6.177582E-002,6.177582E-002,
   **   ~~~   ** Air System Named = CENTRAL SYSTEM did not converge for energy
   **   ~~~   ** Check values should be zero. Most Recent values listed first.
   **   ~~~   ** Demand-to-Supply interface energy check value iteration history trace: 1224.542669,1224.542669,1224.542668,1224.542668,1224.542668,1224.542668,1224.542668,1224.542668,1224.542668,1224.542668,
   **   ~~~   ** Supply-to-demand interface deck 1 energy check value iteration history trace: 2243.730997,2243.730997,2243.730997,2243.730996,2243.730996,2243.730996,2243.730996,2243.730996,2243.730996,2243.730996,
   ** Warning ** SimHVAC: Maximum iterations (20) exceeded for all HVAC loops, at ANNUAL, 11/14 09:15 - 09:18
   **   ~~~   ** The solution for one or more of the Air Loop HVAC systems did not appear to converge
   **   ~~~   ** Air System Named = CENTRAL SYSTEM did not converge for mass flow rate
   **   ~~~   ** Check values should be zero. Most Recent values listed first.
   **   ~~~   ** Demand-to-Supply interface mass flow rate check value iteration history trace: 6.135645E-002,6.135645E-002,6.135645E-002,6.135645E-002,6.135645E-002,6.135645E-002,6.135645E-002,6.135645E-002,6.135645E-002,6.135645E-002,
   **   ~~~   ** Supply-to-demand interface deck 1 mass flow rate check value iteration history trace: 6.135645E-002,6.135645E-002,6.135645E-002,6.135645E-002,6.135645E-002,6.135645E-002,6.135645E-002,6.135645E-002,6.135645E-002,6.135645E-002,
   **   ~~~   ** Air System Named = CENTRAL SYSTEM did not converge for energy
   **   ~~~   ** Check values should be zero. Most Recent values listed first.
   **   ~~~   ** Demand-to-Supply interface energy check value iteration history trace: 1215.873070,1215.873069,1215.873069,1215.873069,1215.873069,1215.873069,1215.873069,1215.873069,1215.873069,1215.873069,
   **   ~~~   ** Supply-to-demand interface deck 1 energy check value iteration history trace: 2177.798262,2177.798261,2177.798261,2177.798261,2177.798261,2177.798261,2177.798261,2177.798261,2177.798261,2177.798261,
   ** Warning ** SimHVAC: Maximum iterations (20) exceeded for all HVAC loops, at ANNUAL, 12/06 16:00 - 16:15
   **   ~~~   ** The solution for one or more of the Air Loop HVAC systems did not appear to converge
   **   ~~~   ** Air System Named = CENTRAL SYSTEM did not converge for mass flow rate
   **   ~~~   ** Check values should be zero. Most Recent values listed first.
   **   ~~~   ** Demand-to-Supply interface mass flow rate check value iteration history trace: 0.103128,0.103128,0.103128,0.103128,0.103128,0.103128,0.103128,0.103128,0.103128,0.103128,
   **   ~~~   ** Supply-to-demand interface deck 1 mass flow rate check value iteration history trace: 0.103128,0.103128,0.103128,0.103128,0.103128,0.103128,0.103128,0.103128,0.103128,0.103128,
   **   ~~~   ** Air System Named = CENTRAL SYSTEM did not converge for energy
   **   ~~~   ** Check values should be zero. Most Recent values listed first.
   **   ~~~   ** Demand-to-Supply interface energy check value iteration history trace: 2028.483168,2028.483168,2028.483168,2028.483168,2028.483167,2028.483167,2028.483167,2028.483167,2028.483167,2028.483167,
   **   ~~~   ** Supply-to-demand interface deck 1 energy check value iteration history trace: 3000.727546,3000.727545,3000.727545,3000.727545,3000.727545,3000.727544,3000.727544,3000.727544,3000.727544,3000.727543,
   ** Warning ** SimHVAC: Maximum iterations (20) exceeded for all HVAC loops, at ANNUAL, 12/07 17:23 - 17:26
   **   ~~~   ** The solution for one or more of the Air Loop HVAC systems did not appear to converge
   **   ~~~   ** Air System Named = CENTRAL SYSTEM did not converge for mass flow rate
   **   ~~~   ** Check values should be zero. Most Recent values listed first.
   **   ~~~   ** Demand-to-Supply interface mass flow rate check value iteration history trace: 9.431452E-002,9.431452E-002,9.431452E-002,9.431452E-002,9.431452E-002,9.431452E-002,9.431452E-002,9.431452E-002,9.431452E-002,9.431452E-002,
   **   ~~~   ** Supply-to-demand interface deck 1 mass flow rate check value iteration history trace: 9.431452E-002,9.431452E-002,9.431452E-002,9.431452E-002,9.431452E-002,9.431452E-002,9.431452E-002,9.431452E-002,9.431452E-002,9.431452E-002,
   **   ~~~   ** Air System Named = CENTRAL SYSTEM did not converge for energy
   **   ~~~   ** Check values should be zero. Most Recent values listed first.
   **   ~~~   ** Demand-to-Supply interface energy check value iteration history trace: 1859.783525,1859.783525,1859.783525,1859.783525,1859.783525,1859.783525,1859.783525,1859.783525,1859.783524,1859.783524,
   **   ~~~   ** Supply-to-demand interface deck 1 energy check value iteration history trace: 2829.470877,2829.470877,2829.470877,2829.470877,2829.470876,2829.470876,2829.470876,2829.470876,2829.470876,2829.470875,
   ** Warning ** SimHVAC: Maximum iterations (20) exceeded for all HVAC loops, at ANNUAL, 12/31 12:00 - 12:08
   **   ~~~   ** The solution for one or more of the Air Loop HVAC systems did not appear to converge
   **   ~~~   ** Air System Named = CENTRAL SYSTEM did not converge for mass flow rate
   **   ~~~   ** Check values should be zero. Most Recent values listed first.
   **   ~~~   ** Demand-to-Supply interface mass flow rate check value iteration history trace: 6.132140E-002,6.132140E-002,6.132140E-002,6.132140E-002,6.132140E-002,6.132140E-002,6.132140E-002,6.132140E-002,6.132140E-002,6.132140E-002,
   **   ~~~   ** Supply-to-demand interface deck 1 mass flow rate check value iteration history trace: 6.132140E-002,6.132140E-002,6.132140E-002,6.132140E-002,6.132140E-002,6.132140E-002,6.132140E-002,6.132140E-002,6.132140E-002,6.132140E-002,
   **   ~~~   ** Air System Named = CENTRAL SYSTEM did not converge for energy
   **   ~~~   ** Check values should be zero. Most Recent values listed first.
   **   ~~~   ** Demand-to-Supply interface energy check value iteration history trace: 1215.179783,1215.179783,1215.179783,1215.179783,1215.179783,1215.179783,1215.179783,1215.179783,1215.179783,1215.179783,
   **   ~~~   ** Supply-to-demand interface deck 1 energy check value iteration history trace: 2204.443927,2204.443927,2204.443927,2204.443927,2204.443927,2204.443927,2204.443927,2204.443927,2204.443926,2204.443926,
   ************* Simulation Error Summary *************
   ** Warning ** The following Report Variables were requested but not generated -- check.rdd file
   **   ~~~   ** Either the IDF did not contain these elements, the variable name is misspelled,
   **   ~~~   ** or the requested variable is an advanced output which requires Output : Diagnostics, DisplayAdvancedReportVariables;
   ************* Key=*, VarName=BASEBOARD TOTAL HEATING ENERGY, Frequency=
   ************* Key=*, VarName=WATER HEATER NATURALGAS ENERGY, Frequency=
   ************* Key=*, VarName=COOLING COIL TOTAL HEATING ENERGY, Frequency=
   ************* There are 34 unused schedules in input.
   ************* There are 388 unused week schedules in input.
   ************* There are 396 unused day schedules in input.
   ************* Use Output:Diagnostics,DisplayUnusedSchedules; to see them.
   *************
   ************* ===== Recurring Error Summary =====
   ************* The following recurring error messages occurred.
   *************
   *************  ** Warning ** "TOTAL HOT WATER LOAD" - Target water temperature should be less than or equal to the hot water temperature error continues...
   *************  **   ~~~   **   This error occurred 98025 total times;
   *************  **   ~~~   **   during Warmup 0 times;
   *************  **   ~~~   **   during Sizing 0 times.
   *************  **   ~~~   **   Max=9.867034  Min=4.727628E-006
   *************
   *************
   ************* ===== Final Error Summary =====
   ************* The following error categories occurred.  Consider correcting or noting.
   ************* Nominally Unused Constructions
   ************* ..The nominally unused constructions warning is provided to alert you to potential conditions that can cause
   ************* ..extra time during simulation. Each construction is calculated by the algorithm indicated in the HeatBalanceAlgorithm
   ************* ..object. You may remove the constructions indicated (when you use the DisplayExtraWarnings option).
   *************
   ************* EnergyPlus Warmup Error Summary. During Warmup: 1 Warning; 0 Severe Errors.
   ************* EnergyPlus Sizing Error Summary. During Sizing: 4 Warning; 0 Severe Errors.
   ************* EnergyPlus Completed Successfully-- 98055 Warning; 0 Severe Errors; Elapsed Time=00hr 05min 26.77sec
