Program Version,EnergyPlus, Version 22.2.0-c249759bad, YMD=2023.09.01 19:18,
   ************* Beginning Zone Sizing Calculations
   ** Warning ** ProcessScheduleInput: Schedule:Constant="ALWAYS ON DISCRETE", Schedule Type Limits Name="ONOFF" not found -- will not be validated
   ** Warning ** Foundation:Kiva="KIVA FOUNDATION", no Interior Horizontal Insulation Material Name defined
   **   ~~~   ** Interior Horizontal Insulation Depth will not be used.
   ** Warning ** CheckUsedConstructions: There are 15 nominally unused constructions in input.
   **   ~~~   ** Each Unused construction is shown.
   ************* Construction=INTERIOR FLOOR
   ************* Construction=INTERIOR WINDOW
   ************* Construction=EXTERIOR DOOR
   ************* Construction=INTERIOR DOOR
   ************* Construction=GABLE CONSTRUCTION
   ************* Construction=CRAWL_FLOOR
   ************* Construction=INSULATED PIPE
   ************* Construction=PLAIN PIPE
   ************* Construction=TDD PIPE
   ************* Construction=TDD DOME
   ************* Construction=TDD DIFFUSER
   ************* Construction=CRAWL WALL
   ************* Construction=CEILING-FLOOR-LAYER
   ************* Construction=SLAB CONSTRUCTION W FULL R10 INSULATION
   ************* Construction=SLAB CONSTRUCTION W FULL R5 INSULATION
   ** Warning ** GetDXCoils: Coil:Heating:DX:SingleSpeed="DX_HEATING_COIL" curve values
   **   ~~~   ** ... Defrost Energy Input Ratio Function of Temperature Curve Name = DEFROSTEIR output is not equal to 1.0 (+ or - 10%) at rated conditions.
   **   ~~~   ** ... Curve output at rated conditions = 0.152
   ************* Beginning System Sizing Calculations
   ************* Beginning Plant Sizing Calculations
   ** Warning ** Coil:WaterHeating:AirToWaterHeatPump:Wrapped "HEAT PUMP WATER HEATER EVAPORATOR": Rated air volume flow rate per watt of rated total water heating capacity is out of range
   **   ~~~   ** Min Rated Vol Flow Per Watt=[4.027E-005], Rated Vol Flow Per Watt=[1.510E-004], Max Rated Vol Flow Per Watt=[8.056E-005]. See Input-Output Reference Manual for valid range.
   ************* SizeFan: : Potential issue with equipment sizing for Fan:OnOff HEAT PUMP WATER HEATER FAN
   **   ~~~   ** User-Specified Maximum Flow Rate [m3/s] = 0.22653
   **   ~~~   ** differs from Design Size Maximum Flow Rate [m3/s] = 7.55250E-002
   **   ~~~   ** This may, or may not, indicate mismatched component sizes.
   **   ~~~   ** Verify that the value entered is intended and is consistent with other components.
   ** Warning ** Water heater = WATER HEATER TANK:  Recovery Efficiency and Energy Factor could not be calculated during the test for standard ratings
   **   ~~~   ** Setpoint was never recovered and/or heater never turned on
   ** Warning ** Check input. Pump nominal power or motor efficiency is set to 0, for pump=MAINS PRESSURE
   ** Warning ** Output:Meter: invalid Key Name="ELECTRIC_RANGE:INTERIOREQUIPMENT:ELECTRICITY" - not found.
   ** Warning ** Output:Meter: invalid Key Name="ELECTRIC_DRYER:INTERIOREQUIPMENT:ELECTRICITY" - not found.
   ** Warning ** Output:Meter: invalid Key Name="HEATRECOVERY:ELECTRICITY" - not found.
   ** Warning ** Output:Meter: invalid Key Name="HEATING:NATURALGAS" - not found.
   ** Warning ** Output:Meter: invalid Key Name="WATERSYSTEMS:NATURALGAS" - not found.
   ** Warning ** Output:Meter: invalid Key Name="PROPANE:FACILITY" - not found.
   ** Warning ** Output:Meter: invalid Key Name="HEATING:PROPANE" - not found.
   ************* Testing Individual Branch Integrity
   ************* All Branches passed integrity testing
   ************* Testing Individual Supply Air Path Integrity
   ************* All Supply Air Paths passed integrity testing
   ************* Testing Individual Return Air Path Integrity
   ************* All Return Air Paths passed integrity testing
   ************* No node connection errors were found.
   ************* Beginning Simulation
   ** Warning ** AirflowNetwork::Solver::validate_distribution: Heat pump water heater is simulated along with an AirflowNetwork but is not included in the AirflowNetwork.
   ** Warning ** CalcEquipmentFlowRates: "TOTAL HOT WATER LOAD" - Target water temperature is greater than the hot water temperature by (2.07 C)
   **   ~~~   **  Environment=EXTREME_WINTER, at Simulation time=01/27 06:45 - 07:00
   **   ~~~   ** ...target water temperature     = 53.33 C
   **   ~~~   ** ...hot water temperature        = 51.26 C
   **   ~~~   ** ...Target water temperature should be less than or equal to the hot water temperature. Verify temperature setpoints and schedules.
   ** Warning ** SimHVAC: Maximum iterations (20) exceeded for all HVAC loops, at ANNUAL, 01/24 16:00 - 16:08
   **   ~~~   ** The solution for one or more of the Air Loop HVAC systems did not appear to converge
   **   ~~~   ** Air System Named = CENTRAL SYSTEM did not converge for mass flow rate
   **   ~~~   ** Check values should be zero. Most Recent values listed first.
   **   ~~~   ** Demand-to-Supply interface mass flow rate check value iteration history trace: 7.413809E-002,7.413809E-002,7.413809E-002,7.413809E-002,7.413809E-002,7.413809E-002,7.413809E-002,7.413809E-002,7.413809E-002,7.413809E-002,
   **   ~~~   ** Supply-to-demand interface deck 1 mass flow rate check value iteration history trace: 7.413809E-002,7.413809E-002,7.413809E-002,7.413809E-002,7.413809E-002,7.413809E-002,7.413809E-002,7.413809E-002,7.413809E-002,7.413809E-002,
   **   ~~~   ** Air System Named = CENTRAL SYSTEM did not converge for energy
   **   ~~~   ** Check values should be zero. Most Recent values listed first.
   **   ~~~   ** Demand-to-Supply interface energy check value iteration history trace: 1469.843644,1469.843644,1469.843644,1469.843644,1469.843644,1469.843644,1469.843644,1469.843644,1469.843644,1469.843644,
   **   ~~~   ** Supply-to-demand interface deck 1 energy check value iteration history trace: 2312.820790,2312.820790,2312.820790,2312.820789,2312.820789,2312.820789,2312.820789,2312.820789,2312.820789,2312.820788,
   ** Warning ** SimHVAC: Maximum iterations (20) exceeded for all HVAC loops, at ANNUAL, 01/26 14:15 - 14:30
   **   ~~~   ** The solution for one or more of the Air Loop HVAC systems did not appear to converge
   **   ~~~   ** Air System Named = CENTRAL SYSTEM did not converge for mass flow rate
   **   ~~~   ** Check values should be zero. Most Recent values listed first.
   **   ~~~   ** Demand-to-Supply interface mass flow rate check value iteration history trace: 6.273073E-002,6.273073E-002,6.273073E-002,6.273073E-002,6.273073E-002,6.273073E-002,6.273073E-002,6.273073E-002,6.273073E-002,6.273073E-002,
   **   ~~~   ** Supply-to-demand interface deck 1 mass flow rate check value iteration history trace: 6.273073E-002,6.273073E-002,6.273073E-002,6.273073E-002,6.273073E-002,6.273073E-002,6.273073E-002,6.273073E-002,6.273073E-002,6.273073E-002,
   **   ~~~   ** Air System Named = CENTRAL SYSTEM did not converge for energy
   **   ~~~   ** Check values should be zero. Most Recent values listed first.
   **   ~~~   ** Demand-to-Supply interface energy check value iteration history trace: 1242.069322,1242.069322,1242.069322,1242.069322,1242.069322,1242.069322,1242.069322,1242.069322,1242.069322,1242.069322,
   **   ~~~   ** Supply-to-demand interface deck 1 energy check value iteration history trace: 2004.242311,2004.242311,2004.242311,2004.242311,2004.242311,2004.242311,2004.242311,2004.242311,2004.242310,2004.242310,
   ** Warning ** SimHVAC: Maximum iterations (20) exceeded for all HVAC loops, at ANNUAL, 02/14 11:00 - 11:03
   **   ~~~   ** The solution for one or more of the Air Loop HVAC systems did not appear to converge
   **   ~~~   ** Air System Named = CENTRAL SYSTEM did not converge for mass flow rate
   **   ~~~   ** Check values should be zero. Most Recent values listed first.
   **   ~~~   ** Demand-to-Supply interface mass flow rate check value iteration history trace: 8.098433E-002,8.098433E-002,8.098433E-002,8.098433E-002,8.098433E-002,8.098433E-002,8.098433E-002,8.098433E-002,8.098433E-002,8.098433E-002,
   **   ~~~   ** Supply-to-demand interface deck 1 mass flow rate check value iteration history trace: 8.098433E-002,8.098433E-002,8.098433E-002,8.098433E-002,8.098433E-002,8.098433E-002,8.098433E-002,8.098433E-002,8.098433E-002,8.098433E-002,
   **   ~~~   ** Air System Named = CENTRAL SYSTEM did not converge for energy
   **   ~~~   ** Check values should be zero. Most Recent values listed first.
   **   ~~~   ** Demand-to-Supply interface energy check value iteration history trace: 1604.825215,1604.825215,1604.825215,1604.825215,1604.825215,1604.825215,1604.825215,1604.825215,1604.825215,1604.825215,
   **   ~~~   ** Supply-to-demand interface deck 1 energy check value iteration history trace: 2590.268267,2590.268267,2590.268267,2590.268267,2590.268267,2590.268267,2590.268267,2590.268266,2590.268266,2590.268266,
   ** Warning ** SimHVAC: Maximum iterations (20) exceeded for all HVAC loops, at ANNUAL, 02/14 20:00 - 20:08
   **   ~~~   ** The solution for one or more of the Air Loop HVAC systems did not appear to converge
   **   ~~~   ** Air System Named = CENTRAL SYSTEM did not converge for mass flow rate
   **   ~~~   ** Check values should be zero. Most Recent values listed first.
   **   ~~~   ** Demand-to-Supply interface mass flow rate check value iteration history trace: 8.870329E-002,8.870329E-002,8.870329E-002,8.870329E-002,8.870329E-002,8.870329E-002,8.870329E-002,8.870329E-002,8.870329E-002,8.870329E-002,
   **   ~~~   ** Supply-to-demand interface deck 1 mass flow rate check value iteration history trace: 8.870329E-002,8.870329E-002,8.870329E-002,8.870329E-002,8.870329E-002,8.870329E-002,8.870329E-002,8.870329E-002,8.870329E-002,8.870329E-002,
   **   ~~~   ** Air System Named = CENTRAL SYSTEM did not converge for energy
   **   ~~~   ** Check values should be zero. Most Recent values listed first.
   **   ~~~   ** Demand-to-Supply interface energy check value iteration history trace: 1752.619362,1752.619362,1752.619362,1752.619362,1752.619362,1752.619362,1752.619362,1752.619362,1752.619361,1752.619361,
   **   ~~~   ** Supply-to-demand interface deck 1 energy check value iteration history trace: 2779.833906,2779.833906,2779.833906,2779.833905,2779.833905,2779.833905,2779.833905,2779.833905,2779.833905,2779.833904,
   ** Warning ** SimHVAC: Maximum iterations (20) exceeded for all HVAC loops, at ANNUAL, 02/16 19:15 - 19:30
   **   ~~~   ** The solution for one or more of the Air Loop HVAC systems did not appear to converge
   **   ~~~   ** Air System Named = CENTRAL SYSTEM did not converge for mass flow rate
   **   ~~~   ** Check values should be zero. Most Recent values listed first.
   **   ~~~   ** Demand-to-Supply interface mass flow rate check value iteration history trace: 8.152636E-002,8.152636E-002,8.152636E-002,8.152636E-002,8.152636E-002,8.152636E-002,8.152636E-002,8.152636E-002,8.152636E-002,8.152636E-002,
   **   ~~~   ** Supply-to-demand interface deck 1 mass flow rate check value iteration history trace: 8.152636E-002,8.152636E-002,8.152636E-002,8.152636E-002,8.152636E-002,8.152636E-002,8.152636E-002,8.152636E-002,8.152636E-002,8.152636E-002,
   **   ~~~   ** Air System Named = CENTRAL SYSTEM did not converge for energy
   **   ~~~   ** Check values should be zero. Most Recent values listed first.
   **   ~~~   ** Demand-to-Supply interface energy check value iteration history trace: 1592.160425,1592.160425,1592.160425,1592.160425,1592.160425,1592.160425,1592.160425,1592.160425,1592.160425,1592.160425,
   **   ~~~   ** Supply-to-demand interface deck 1 energy check value iteration history trace: 2596.192173,2596.192173,2596.192173,2596.192172,2596.192172,2596.192172,2596.192172,2596.192172,2596.192172,2596.192172,
   ** Warning ** SimHVAC: Maximum iterations (20) exceeded for all HVAC loops, at ANNUAL, 02/17 17:45 - 17:52
   **   ~~~   ** The solution for one or more of the Air Loop HVAC systems did not appear to converge
   **   ~~~   ** Air System Named = CENTRAL SYSTEM did not converge for mass flow rate
   **   ~~~   ** Check values should be zero. Most Recent values listed first.
   **   ~~~   ** Demand-to-Supply interface mass flow rate check value iteration history trace: 7.076102E-002,7.076102E-002,7.076102E-002,7.076102E-002,7.076102E-002,7.076102E-002,7.076102E-002,7.076102E-002,7.076102E-002,7.076102E-002,
   **   ~~~   ** Supply-to-demand interface deck 1 mass flow rate check value iteration history trace: 7.076102E-002,7.076102E-002,7.076102E-002,7.076102E-002,7.076102E-002,7.076102E-002,7.076102E-002,7.076102E-002,7.076102E-002,7.076102E-002,
   **   ~~~   ** Air System Named = CENTRAL SYSTEM did not converge for energy
   **   ~~~   ** Check values should be zero. Most Recent values listed first.
   **   ~~~   ** Demand-to-Supply interface energy check value iteration history trace: 1397.176360,1397.176360,1397.176360,1397.176360,1397.176359,1397.176359,1397.176359,1397.176359,1397.176359,1397.176359,
   **   ~~~   ** Supply-to-demand interface deck 1 energy check value iteration history trace: 2282.019038,2282.019038,2282.019038,2282.019038,2282.019037,2282.019037,2282.019037,2282.019037,2282.019037,2282.019037,
   ** Warning ** SimHVAC: Maximum iterations (20) exceeded for all HVAC loops, at ANNUAL, 03/06 10:02 - 10:04
   **   ~~~   ** The solution for one or more of the Air Loop HVAC systems did not appear to converge
   **   ~~~   ** Air System Named = CENTRAL SYSTEM did not converge for mass flow rate
   **   ~~~   ** Check values should be zero. Most Recent values listed first.
   **   ~~~   ** Demand-to-Supply interface mass flow rate check value iteration history trace: 7.113960E-002,7.113960E-002,7.113960E-002,7.113960E-002,7.113960E-002,7.113960E-002,7.113960E-002,7.113960E-002,7.113960E-002,7.113960E-002,
   **   ~~~   ** Supply-to-demand interface deck 1 mass flow rate check value iteration history trace: 7.113960E-002,7.113960E-002,7.113960E-002,7.113960E-002,7.113960E-002,7.113960E-002,7.113960E-002,7.113960E-002,7.113960E-002,7.113960E-002,
   **   ~~~   ** Air System Named = CENTRAL SYSTEM did not converge for energy
   **   ~~~   ** Check values should be zero. Most Recent values listed first.
   **   ~~~   ** Demand-to-Supply interface energy check value iteration history trace: 1409.841364,1409.841363,1409.841363,1409.841363,1409.841363,1409.841363,1409.841363,1409.841363,1409.841363,1409.841363,
   **   ~~~   ** Supply-to-demand interface deck 1 energy check value iteration history trace: 2311.362488,2311.362488,2311.362488,2311.362488,2311.362488,2311.362488,2311.362488,2311.362487,2311.362487,2311.362487,
   ** Warning ** SimHVAC: Maximum iterations (20) exceeded for all HVAC loops, at ANNUAL, 03/14 11:45 - 12:00
   **   ~~~   ** The solution for one or more of the Air Loop HVAC systems did not appear to converge
   **   ~~~   ** Air System Named = CENTRAL SYSTEM did not converge for mass flow rate
   **   ~~~   ** Check values should be zero. Most Recent values listed first.
   **   ~~~   ** Demand-to-Supply interface mass flow rate check value iteration history trace: 5.166269E-002,5.166269E-002,5.166269E-002,5.166269E-002,5.166269E-002,5.166269E-002,5.166269E-002,5.166269E-002,5.166269E-002,5.166269E-002,
   **   ~~~   ** Supply-to-demand interface deck 1 mass flow rate check value iteration history trace: 5.166269E-002,5.166269E-002,5.166269E-002,5.166269E-002,5.166269E-002,5.166269E-002,5.166269E-002,5.166269E-002,5.166269E-002,5.166269E-002,
   **   ~~~   ** Air System Named = CENTRAL SYSTEM did not converge for energy
   **   ~~~   ** Check values should be zero. Most Recent values listed first.
   **   ~~~   ** Demand-to-Supply interface energy check value iteration history trace: 1023.761792,1023.761792,1023.761791,1023.761791,1023.761791,1023.761791,1023.761791,1023.761790,1023.761790,1023.761790,
   **   ~~~   ** Supply-to-demand interface deck 1 energy check value iteration history trace: 1940.550223,1940.550223,1940.550223,1940.550222,1940.550222,1940.550222,1940.550221,1940.550221,1940.550221,1940.550220,
   **   ~~~   ** Node named ZONE INLET NODE shows oscillating temperatures across iterations with a repeated value of 37.380862
   **   ~~~   ** Node named ZONE INLET NODE temperature [C] iteration history trace (most recent first): 37.380862,37.380862,37.380862,37.380862,37.380861,37.380861,37.380861,37.380860,37.380860,37.380860,
   ** Warning ** SimHVAC: Maximum iterations (20) exceeded for all HVAC loops, at ANNUAL, 03/16 10:23 - 10:25
   **   ~~~   ** The solution for one or more of the Air Loop HVAC systems did not appear to converge
   **   ~~~   ** Air System Named = CENTRAL SYSTEM did not converge for mass flow rate
   **   ~~~   ** Check values should be zero. Most Recent values listed first.
   **   ~~~   ** Demand-to-Supply interface mass flow rate check value iteration history trace: 5.767836E-002,5.767836E-002,5.767836E-002,5.767836E-002,5.767836E-002,5.767836E-002,5.767836E-002,5.767836E-002,5.767836E-002,5.767836E-002,
   **   ~~~   ** Supply-to-demand interface deck 1 mass flow rate check value iteration history trace: 5.767836E-002,5.767836E-002,5.767836E-002,5.767836E-002,5.767836E-002,5.767836E-002,5.767836E-002,5.767836E-002,5.767836E-002,5.767836E-002,
   **   ~~~   ** Air System Named = CENTRAL SYSTEM did not converge for energy
   **   ~~~   ** Check values should be zero. Most Recent values listed first.
   **   ~~~   ** Demand-to-Supply interface energy check value iteration history trace: 1136.334364,1136.334364,1136.334364,1136.334364,1136.334364,1136.334364,1136.334364,1136.334364,1136.334364,1136.334364,
   **   ~~~   ** Supply-to-demand interface deck 1 energy check value iteration history trace: 2221.070260,2221.070259,2221.070259,2221.070259,2221.070259,2221.070259,2221.070259,2221.070259,2221.070259,2221.070259,
   ** Warning ** SimHVAC: Maximum iterations (20) exceeded for all HVAC loops, at ANNUAL, 04/10 07:45 - 07:50
   **   ~~~   ** The solution for one or more of the Air Loop HVAC systems did not appear to converge
   **   ~~~   ** Air System Named = CENTRAL SYSTEM did not converge for mass flow rate
   **   ~~~   ** Check values should be zero. Most Recent values listed first.
   **   ~~~   ** Demand-to-Supply interface mass flow rate check value iteration history trace: 6.355875E-002,6.355875E-002,6.355875E-002,6.355875E-002,6.355875E-002,6.355875E-002,6.355875E-002,6.355875E-002,6.355875E-002,6.355875E-002,
   **   ~~~   ** Supply-to-demand interface deck 1 mass flow rate check value iteration history trace: 6.355875E-002,6.355875E-002,6.355875E-002,6.355875E-002,6.355875E-002,6.355875E-002,6.355875E-002,6.355875E-002,6.355875E-002,6.355875E-002,
   **   ~~~   ** Air System Named = CENTRAL SYSTEM did not converge for energy
   **   ~~~   ** Check values should be zero. Most Recent values listed first.
   **   ~~~   ** Demand-to-Supply interface energy check value iteration history trace: 1259.455062,1259.455062,1259.455062,1259.455062,1259.455062,1259.455062,1259.455062,1259.455062,1259.455062,1259.455062,
   **   ~~~   ** Supply-to-demand interface deck 1 energy check value iteration history trace: 2355.590961,2355.590961,2355.590961,2355.590961,2355.590960,2355.590960,2355.590960,2355.590960,2355.590960,2355.590960,
   ** Warning ** SimHVAC: Maximum iterations (20) exceeded for all HVAC loops, at ANNUAL, 04/10 08:54 - 08:57
   **   ~~~   ** The solution for one or more of the Air Loop HVAC systems did not appear to converge
   **   ~~~   ** Air System Named = CENTRAL SYSTEM did not converge for mass flow rate
   **   ~~~   ** Check values should be zero. Most Recent values listed first.
   **   ~~~   ** Demand-to-Supply interface mass flow rate check value iteration history trace: 5.460619E-002,5.460619E-002,5.460619E-002,5.460619E-002,5.460619E-002,5.460619E-002,5.460619E-002,5.460619E-002,5.460619E-002,5.460619E-002,
   **   ~~~   ** Supply-to-demand interface deck 1 mass flow rate check value iteration history trace: 5.460619E-002,5.460619E-002,5.460619E-002,5.460619E-002,5.460619E-002,5.460619E-002,5.460619E-002,5.460619E-002,5.460619E-002,5.460619E-002,
   **   ~~~   ** Air System Named = CENTRAL SYSTEM did not converge for energy
   **   ~~~   ** Check values should be zero. Most Recent values listed first.
   **   ~~~   ** Demand-to-Supply interface energy check value iteration history trace: 1076.215532,1076.215532,1076.215532,1076.215532,1076.215532,1076.215532,1076.215532,1076.215531,1076.215531,1076.215531,
   **   ~~~   ** Supply-to-demand interface deck 1 energy check value iteration history trace: 2097.939701,2097.939701,2097.939701,2097.939701,2097.939701,2097.939701,2097.939701,2097.939701,2097.939701,2097.939701,
   ** Warning ** SimHVAC: Maximum iterations (20) exceeded for all HVAC loops, at ANNUAL, 04/14 15:00 - 15:08
   **   ~~~   ** The solution for one or more of the Air Loop HVAC systems did not appear to converge
   **   ~~~   ** Air System Named = CENTRAL SYSTEM did not converge for mass flow rate
   **   ~~~   ** Check values should be zero. Most Recent values listed first.
   **   ~~~   ** Demand-to-Supply interface mass flow rate check value iteration history trace: 3.161284E-002,3.161284E-002,3.161284E-002,3.161284E-002,3.161284E-002,3.161284E-002,3.161284E-002,3.161284E-002,3.161284E-002,3.161284E-002,
   **   ~~~   ** Supply-to-demand interface deck 1 mass flow rate check value iteration history trace: 3.161284E-002,3.161284E-002,3.161284E-002,3.161284E-002,3.161284E-002,3.161284E-002,3.161284E-002,3.161284E-002,3.161284E-002,3.161284E-002,
   **   ~~~   ** Air System Named = CENTRAL SYSTEM did not converge for energy
   **   ~~~   ** Check values should be zero. Most Recent values listed first.
   **   ~~~   ** Demand-to-Supply interface energy check value iteration history trace: 619.789343,619.789342,619.789342,619.789342,619.789342,619.789342,619.789342,619.789342,619.789342,619.789342,
   **   ~~~   ** Supply-to-demand interface deck 1 energy check value iteration history trace: 1057.737599,1057.737599,1057.737599,1057.737599,1057.737599,1057.737599,1057.737599,1057.737599,1057.737599,1057.737599,
   ** Warning ** SimHVAC: Maximum iterations (20) exceeded for all HVAC loops, at ANNUAL, 09/30 12:00 - 12:15
   **   ~~~   ** The solution for one or more of the Air Loop HVAC systems did not appear to converge
   **   ~~~   ** Air System Named = CENTRAL SYSTEM did not converge for mass flow rate
   **   ~~~   ** Check values should be zero. Most Recent values listed first.
   **   ~~~   ** Demand-to-Supply interface mass flow rate check value iteration history trace: 3.684490E-002,3.684490E-002,3.684490E-002,3.684490E-002,3.684490E-002,3.684490E-002,3.684490E-002,3.684490E-002,3.684490E-002,3.684490E-002,
   **   ~~~   ** Supply-to-demand interface deck 1 mass flow rate check value iteration history trace: 3.684490E-002,3.684490E-002,3.684490E-002,3.684490E-002,3.684490E-002,3.684490E-002,3.684490E-002,3.684490E-002,3.684490E-002,3.684490E-002,
   **   ~~~   ** Air System Named = CENTRAL SYSTEM did not converge for energy
   **   ~~~   ** Check values should be zero. Most Recent values listed first.
   **   ~~~   ** Demand-to-Supply interface energy check value iteration history trace: 716.326295,716.326295,716.326295,716.326294,716.326294,716.326294,716.326294,716.326294,716.326294,716.326294,
   **   ~~~   ** Supply-to-demand interface deck 1 energy check value iteration history trace: 1458.089617,1458.089617,1458.089617,1458.089617,1458.089617,1458.089617,1458.089617,1458.089617,1458.089617,1458.089617,
   ** Warning ** SimHVAC: Maximum iterations (20) exceeded for all HVAC loops, at ANNUAL, 10/07 11:45 - 12:00
   **   ~~~   ** The solution for one or more of the Air Loop HVAC systems did not appear to converge
   **   ~~~   ** Air System Named = CENTRAL SYSTEM did not converge for mass flow rate
   **   ~~~   ** Check values should be zero. Most Recent values listed first.
   **   ~~~   ** Demand-to-Supply interface mass flow rate check value iteration history trace: 9.028871E-002,9.028871E-002,9.028871E-002,9.028871E-002,9.028871E-002,9.028871E-002,9.028871E-002,9.028871E-002,9.028871E-002,9.028871E-002,
   **   ~~~   ** Supply-to-demand interface deck 1 mass flow rate check value iteration history trace: 9.028871E-002,9.028871E-002,9.028871E-002,9.028871E-002,9.028871E-002,9.028871E-002,9.028871E-002,9.028871E-002,9.028871E-002,9.028871E-002,
   **   ~~~   ** Air System Named = CENTRAL SYSTEM did not converge for energy
   **   ~~~   ** Check values should be zero. Most Recent values listed first.
   **   ~~~   ** Demand-to-Supply interface energy check value iteration history trace: 2161.576387,2161.576387,2161.576387,2161.576387,2161.576387,2161.576388,2161.576388,2161.576388,2161.576388,2161.576388,
   **   ~~~   ** Supply-to-demand interface deck 1 energy check value iteration history trace: 1020.795101,1020.795102,1020.795102,1020.795102,1020.795102,1020.795102,1020.795102,1020.795102,1020.795102,1020.795102,
   ************* Simulation Error Summary *************
   ** Warning ** The following Report Variables were requested but not generated -- check.rdd file
   **   ~~~   ** Either the IDF did not contain these elements, the variable name is misspelled,
   **   ~~~   ** or the requested variable is an advanced output which requires Output : Diagnostics, DisplayAdvancedReportVariables;
   ************* Key=*, VarName=BASEBOARD TOTAL HEATING ENERGY, Frequency=
   ************* Key=*, VarName=WATER HEATER NATURALGAS ENERGY, Frequency=
   ************* Key=*, VarName=COOLING COIL TOTAL HEATING ENERGY, Frequency=
   ************* There are 34 unused schedules in input.
   ************* There are 388 unused week schedules in input.
   ************* There are 397 unused day schedules in input.
   ************* Use Output:Diagnostics,DisplayUnusedSchedules; to see them.
   *************
   ************* ===== Recurring Error Summary =====
   ************* The following recurring error messages occurred.
   *************
   *************  ** Warning ** "TOTAL HOT WATER LOAD" - Target water temperature should be less than or equal to the hot water temperature error continues...
   *************  **   ~~~   **   This error occurred 91695 total times;
   *************  **   ~~~   **   during Warmup 0 times;
   *************  **   ~~~   **   during Sizing 0 times.
   *************  **   ~~~   **   Max=9.801554  Min=7.509430E-004
   *************
   *************  ** Warning ** SimHVAC: Exceeding Maximum iterations for all HVAC loops, during ANNUAL continues
   *************  **   ~~~   **   This error occurred 5 total times;
   *************  **   ~~~   **   during Warmup 0 times;
   *************  **   ~~~   **   during Sizing 0 times.
   *************
   *************
   ************* ===== Final Error Summary =====
   ************* The following error categories occurred.  Consider correcting or noting.
   ************* Nominally Unused Constructions
   ************* ..The nominally unused constructions warning is provided to alert you to potential conditions that can cause
   ************* ..extra time during simulation. Each construction is calculated by the algorithm indicated in the HeatBalanceAlgorithm
   ************* ..object. You may remove the constructions indicated (when you use the DisplayExtraWarnings option).
   *************
   ************* EnergyPlus Warmup Error Summary. During Warmup: 1 Warning; 0 Severe Errors.
   ************* EnergyPlus Sizing Error Summary. During Sizing: 4 Warning; 0 Severe Errors.
   ************* EnergyPlus Completed Successfully-- 91731 Warning; 0 Severe Errors; Elapsed Time=00hr 01min 30.36sec
