Program Version,EnergyPlus, Version 22.2.0-c249759bad, YMD=2023.09.01 15:14,
   ************* Beginning Zone Sizing Calculations
   ** Warning ** ProcessScheduleInput: Schedule:Constant="ALWAYS ON DISCRETE", Schedule Type Limits Name="ONOFF" not found -- will not be validated
   ** Warning ** Foundation:Kiva="KIVA FOUNDATION", no Interior Horizontal Insulation Material Name defined
   **   ~~~   ** Interior Horizontal Insulation Depth will not be used.
   ** Warning ** CheckUsedConstructions: There are 15 nominally unused constructions in input.
   **   ~~~   ** Each Unused construction is shown.
   ************* Construction=INTERIOR FLOOR
   ************* Construction=INTERIOR WINDOW
   ************* Construction=EXTERIOR DOOR
   ************* Construction=INTERIOR DOOR
   ************* Construction=GABLE CONSTRUCTION
   ************* Construction=CRAWL_FLOOR
   ************* Construction=INSULATED PIPE
   ************* Construction=PLAIN PIPE
   ************* Construction=TDD PIPE
   ************* Construction=TDD DOME
   ************* Construction=TDD DIFFUSER
   ************* Construction=CRAWL WALL
   ************* Construction=CEILING-FLOOR-LAYER
   ************* Construction=SLAB CONSTRUCTION W FULL R10 INSULATION
   ************* Construction=SLAB CONSTRUCTION W FULL R5 INSULATION
   ** Warning ** GetDXCoils: Coil:Heating:DX:SingleSpeed="DX_HEATING_COIL" curve values
   **   ~~~   ** ... Defrost Energy Input Ratio Function of Temperature Curve Name = DEFROSTEIR output is not equal to 1.0 (+ or - 10%) at rated conditions.
   **   ~~~   ** ... Curve output at rated conditions = 0.152
   ************* Beginning System Sizing Calculations
   ************* Beginning Plant Sizing Calculations
   ** Warning ** SizeDXCoil Coil:Cooling:DX:SingleSpeed DX_COOLING_COIL
   **   ~~~   ** ...Gross Rated Total Cooling Capacity [W] will be limited by the maximum rated volume flow per rated total capacity ratio.
   **   ~~~   ** ...DX coil volume flow rate ( m3/s ) = 0.388051
   **   ~~~   ** ...Requested capacity ( W ) = 5781.557
   **   ~~~   ** ...Requested flow/capacity ratio ( m3/s/W ) = 6.711E-005
   **   ~~~   ** ...Maximum flow/capacity ratio ( m3/s/W ) = 6.041E-005
   **   ~~~   ** ...Adjusted capacity ( W ) = 6423.623
   ** Warning ** Coil:WaterHeating:AirToWaterHeatPump:Wrapped "HEAT PUMP WATER HEATER EVAPORATOR": Rated air volume flow rate per watt of rated total water heating capacity is out of range
   **   ~~~   ** Min Rated Vol Flow Per Watt=[4.027E-005], Rated Vol Flow Per Watt=[1.386E-004], Max Rated Vol Flow Per Watt=[8.056E-005]. See Input-Output Reference Manual for valid range.
   ** Warning ** Water heater = WATER HEATER TANK:  Recovery Efficiency and Energy Factor could not be calculated during the test for standard ratings
   **   ~~~   ** Setpoint was never recovered and/or heater never turned on
   ** Warning ** Check input. Pump nominal power or motor efficiency is set to 0, for pump=MAINS PRESSURE
   ** Warning ** Output:Meter: invalid Key Name="ELECTRIC_RANGE:INTERIOREQUIPMENT:ELECTRICITY" - not found.
   ** Warning ** Output:Meter: invalid Key Name="ELECTRIC_DRYER:INTERIOREQUIPMENT:ELECTRICITY" - not found.
   ** Warning ** Output:Meter: invalid Key Name="HEATRECOVERY:ELECTRICITY" - not found.
   ** Warning ** Output:Meter: invalid Key Name="HEATING:NATURALGAS" - not found.
   ** Warning ** Output:Meter: invalid Key Name="WATERSYSTEMS:NATURALGAS" - not found.
   ** Warning ** Output:Meter: invalid Key Name="PROPANE:FACILITY" - not found.
   ** Warning ** Output:Meter: invalid Key Name="HEATING:PROPANE" - not found.
   ************* Testing Individual Branch Integrity
   ************* All Branches passed integrity testing
   ************* Testing Individual Supply Air Path Integrity
   ************* All Supply Air Paths passed integrity testing
   ************* Testing Individual Return Air Path Integrity
   ************* All Return Air Paths passed integrity testing
   ************* No node connection errors were found.
   ************* Beginning Simulation
   ** Warning ** AirflowNetwork::Solver::validate_distribution: Heat pump water heater is simulated along with an AirflowNetwork but is not included in the AirflowNetwork.
   ** Warning ** CalcEquipmentFlowRates: "TOTAL HOT WATER LOAD" - Target water temperature is greater than the hot water temperature by (1.64 C)
   **   ~~~   **  Environment=EXTREME_WINTER, at Simulation time=01/22 06:00 - 06:15
   **   ~~~   ** ...target water temperature     = 53.33 C
   **   ~~~   ** ...hot water temperature        = 51.69 C
   **   ~~~   ** ...Target water temperature should be less than or equal to the hot water temperature. Verify temperature setpoints and schedules.
   ** Warning ** SimHVAC: Maximum iterations (20) exceeded for all HVAC loops, at ANNUAL, 01/09 19:45 - 20:00
   **   ~~~   ** The solution for one or more of the Air Loop HVAC systems did not appear to converge
   **   ~~~   ** Air System Named = CENTRAL SYSTEM did not converge for mass flow rate
   **   ~~~   ** Check values should be zero. Most Recent values listed first.
   **   ~~~   ** Demand-to-Supply interface mass flow rate check value iteration history trace: 8.954183E-002,8.954183E-002,8.954183E-002,8.954183E-002,8.954183E-002,8.954183E-002,8.954183E-002,8.954183E-002,8.954183E-002,8.954183E-002,
   **   ~~~   ** Supply-to-demand interface deck 1 mass flow rate check value iteration history trace: 8.954183E-002,8.954183E-002,8.954183E-002,8.954183E-002,8.954183E-002,8.954183E-002,8.954183E-002,8.954183E-002,8.954183E-002,8.954183E-002,
   **   ~~~   ** Air System Named = CENTRAL SYSTEM did not converge for energy
   **   ~~~   ** Check values should be zero. Most Recent values listed first.
   **   ~~~   ** Demand-to-Supply interface energy check value iteration history trace: 1753.853402,1753.853402,1753.853402,1753.853402,1753.853402,1753.853402,1753.853402,1753.853402,1753.853402,1753.853401,
   **   ~~~   ** Supply-to-demand interface deck 1 energy check value iteration history trace: 2977.604912,2977.604912,2977.604912,2977.604912,2977.604912,2977.604912,2977.604911,2977.604911,2977.604911,2977.604911,
   ** Warning ** Temperature out of range [-100. to 200.] (PsyPsatFnTemp)
   **   ~~~   **  Routine=PsyTwbFnTdbWPb, Environment=ANNUAL, at Simulation time=01/20 08:30 - 08:38
   **   ~~~   **  Input Temperature=-138.12
   ** Warning ** SimHVAC: Maximum iterations (20) exceeded for all HVAC loops, at ANNUAL, 02/04 19:38 - 19:45
   **   ~~~   ** The solution for one or more of the Air Loop HVAC systems did not appear to converge
   **   ~~~   ** Air System Named = CENTRAL SYSTEM did not converge for mass flow rate
   **   ~~~   ** Check values should be zero. Most Recent values listed first.
   **   ~~~   ** Demand-to-Supply interface mass flow rate check value iteration history trace: 0.103681,0.103681,0.103681,0.103681,0.103681,0.103681,0.103681,0.103681,0.103681,0.103681,
   **   ~~~   ** Supply-to-demand interface deck 1 mass flow rate check value iteration history trace: 0.103681,0.103681,0.103681,0.103681,0.103681,0.103681,0.103681,0.103681,0.103681,0.103681,
   **   ~~~   ** Air System Named = CENTRAL SYSTEM did not converge for energy
   **   ~~~   ** Check values should be zero. Most Recent values listed first.
   **   ~~~   ** Demand-to-Supply interface energy check value iteration history trace: 2049.376392,2049.376391,2049.376391,2049.376391,2049.376391,2049.376391,2049.376391,2049.376391,2049.376391,2049.376390,
   **   ~~~   ** Supply-to-demand interface deck 1 energy check value iteration history trace: 3101.083520,3101.083520,3101.083520,3101.083519,3101.083519,3101.083519,3101.083519,3101.083519,3101.083518,3101.083518,
   ** Warning ** SimHVAC: Maximum iterations (20) exceeded for all HVAC loops, at ANNUAL, 02/23 17:30 - 17:35
   **   ~~~   ** The solution for one or more of the Air Loop HVAC systems did not appear to converge
   **   ~~~   ** Air System Named = CENTRAL SYSTEM did not converge for mass flow rate
   **   ~~~   ** Check values should be zero. Most Recent values listed first.
   **   ~~~   ** Demand-to-Supply interface mass flow rate check value iteration history trace: 6.112585E-002,6.112585E-002,6.112585E-002,6.112585E-002,6.112585E-002,6.112585E-002,6.112585E-002,6.112585E-002,6.112585E-002,6.112585E-002,
   **   ~~~   ** Supply-to-demand interface deck 1 mass flow rate check value iteration history trace: 6.112585E-002,6.112585E-002,6.112585E-002,6.112585E-002,6.112585E-002,6.112585E-002,6.112585E-002,6.112585E-002,6.112585E-002,6.112585E-002,
   **   ~~~   ** Air System Named = CENTRAL SYSTEM did not converge for energy
   **   ~~~   ** Check values should be zero. Most Recent values listed first.
   **   ~~~   ** Demand-to-Supply interface energy check value iteration history trace: 1205.532508,1205.532508,1205.532508,1205.532508,1205.532508,1205.532507,1205.532507,1205.532507,1205.532507,1205.532507,
   **   ~~~   ** Supply-to-demand interface deck 1 energy check value iteration history trace: 1863.335962,1863.335962,1863.335962,1863.335962,1863.335962,1863.335962,1863.335962,1863.335961,1863.335961,1863.335961,
   ** Warning ** SimHVAC: Maximum iterations (20) exceeded for all HVAC loops, at ANNUAL, 04/16 13:04 - 13:06
   **   ~~~   ** The solution for one or more of the Air Loop HVAC systems did not appear to converge
   **   ~~~   ** Air System Named = CENTRAL SYSTEM did not converge for mass flow rate
   **   ~~~   ** Check values should be zero. Most Recent values listed first.
   **   ~~~   ** Demand-to-Supply interface mass flow rate check value iteration history trace: 6.775125E-002,6.775125E-002,6.775125E-002,6.775125E-002,6.775125E-002,6.775125E-002,6.775125E-002,6.775125E-002,6.775125E-002,6.775125E-002,
   **   ~~~   ** Supply-to-demand interface deck 1 mass flow rate check value iteration history trace: 6.775125E-002,6.775125E-002,6.775125E-002,6.775125E-002,6.775125E-002,6.775125E-002,6.775125E-002,6.775125E-002,6.775125E-002,6.775125E-002,
   **   ~~~   ** Air System Named = CENTRAL SYSTEM did not converge for energy
   **   ~~~   ** Check values should be zero. Most Recent values listed first.
   **   ~~~   ** Demand-to-Supply interface energy check value iteration history trace: 1338.539696,1338.539696,1338.539696,1338.539696,1338.539696,1338.539696,1338.539696,1338.539696,1338.539696,1338.539696,
   **   ~~~   ** Supply-to-demand interface deck 1 energy check value iteration history trace: 2109.411669,2109.411669,2109.411669,2109.411669,2109.411668,2109.411668,2109.411668,2109.411668,2109.411668,2109.411668,
   ** Warning ** SimHVAC: Maximum iterations (20) exceeded for all HVAC loops, at ANNUAL, 05/15 07:45 - 08:00
   **   ~~~   ** The solution for one or more of the Air Loop HVAC systems did not appear to converge
   **   ~~~   ** Air System Named = CENTRAL SYSTEM did not converge for mass flow rate
   **   ~~~   ** Check values should be zero. Most Recent values listed first.
   **   ~~~   ** Demand-to-Supply interface mass flow rate check value iteration history trace: 1.666820E-002,1.666820E-002,1.666820E-002,1.666820E-002,1.666820E-002,1.666820E-002,1.666820E-002,1.666820E-002,1.666820E-002,1.666820E-002,
   **   ~~~   ** Supply-to-demand interface deck 1 mass flow rate check value iteration history trace: 1.666820E-002,1.666820E-002,1.666820E-002,1.666820E-002,1.666820E-002,1.666820E-002,1.666820E-002,1.666820E-002,1.666820E-002,1.666820E-002,
   **   ~~~   ** Air System Named = CENTRAL SYSTEM did not converge for energy
   **   ~~~   ** Check values should be zero. Most Recent values listed first.
   **   ~~~   ** Demand-to-Supply interface energy check value iteration history trace: 384.989564,384.989564,384.989564,384.989564,384.989564,384.989564,384.989564,384.989564,384.989564,384.989564,
   **   ~~~   ** Supply-to-demand interface deck 1 energy check value iteration history trace: 217.534741,217.534741,217.534741,217.534741,217.534741,217.534741,217.534741,217.534741,217.534741,217.534741,
   ** Warning ** SimHVAC: Maximum iterations (20) exceeded for all HVAC loops, at ANNUAL, 11/06 13:45 - 14:00
   **   ~~~   ** The solution for one or more of the Air Loop HVAC systems did not appear to converge
   **   ~~~   ** Air System Named = CENTRAL SYSTEM did not converge for mass flow rate
   **   ~~~   ** Check values should be zero. Most Recent values listed first.
   **   ~~~   ** Demand-to-Supply interface mass flow rate check value iteration history trace: 6.222807E-002,6.222807E-002,6.222807E-002,6.222807E-002,6.222807E-002,6.222807E-002,6.222807E-002,6.222807E-002,6.222807E-002,6.222807E-002,
   **   ~~~   ** Supply-to-demand interface deck 1 mass flow rate check value iteration history trace: 6.222807E-002,6.222807E-002,6.222807E-002,6.222807E-002,6.222807E-002,6.222807E-002,6.222807E-002,6.222807E-002,6.222807E-002,6.222807E-002,
   **   ~~~   ** Air System Named = CENTRAL SYSTEM did not converge for energy
   **   ~~~   ** Check values should be zero. Most Recent values listed first.
   **   ~~~   ** Demand-to-Supply interface energy check value iteration history trace: 1230.580693,1230.580693,1230.580693,1230.580693,1230.580693,1230.580693,1230.580693,1230.580693,1230.580693,1230.580693,
   **   ~~~   ** Supply-to-demand interface deck 1 energy check value iteration history trace: 2157.627544,2157.627544,2157.627544,2157.627544,2157.627543,2157.627543,2157.627543,2157.627543,2157.627543,2157.627543,
   ** Warning ** SimHVAC: Maximum iterations (20) exceeded for all HVAC loops, at ANNUAL, 12/01 15:15 - 15:30
   **   ~~~   ** The solution for one or more of the Air Loop HVAC systems did not appear to converge
   **   ~~~   ** Air System Named = CENTRAL SYSTEM did not converge for mass flow rate
   **   ~~~   ** Check values should be zero. Most Recent values listed first.
   **   ~~~   ** Demand-to-Supply interface mass flow rate check value iteration history trace: 5.182322E-002,5.182322E-002,5.182322E-002,5.182322E-002,5.182322E-002,5.182322E-002,5.182322E-002,5.182322E-002,5.182322E-002,5.182322E-002,
   **   ~~~   ** Supply-to-demand interface deck 1 mass flow rate check value iteration history trace: 5.182322E-002,5.182322E-002,5.182322E-002,5.182322E-002,5.182322E-002,5.182322E-002,5.182322E-002,5.182322E-002,5.182322E-002,5.182322E-002,
   **   ~~~   ** Air System Named = CENTRAL SYSTEM did not converge for energy
   **   ~~~   ** Check values should be zero. Most Recent values listed first.
   **   ~~~   ** Demand-to-Supply interface energy check value iteration history trace: 1026.717550,1026.717550,1026.717550,1026.717550,1026.717549,1026.717549,1026.717549,1026.717549,1026.717549,1026.717549,
   **   ~~~   ** Supply-to-demand interface deck 1 energy check value iteration history trace: 1909.697975,1909.697975,1909.697975,1909.697975,1909.697975,1909.697974,1909.697974,1909.697974,1909.697974,1909.697974,
   ** Warning ** SimHVAC: Maximum iterations (20) exceeded for all HVAC loops, at ANNUAL, 12/01 15:23 - 15:30
   **   ~~~   ** The solution for one or more of the Air Loop HVAC systems did not appear to converge
   **   ~~~   ** Air System Named = CENTRAL SYSTEM did not converge for mass flow rate
   **   ~~~   ** Check values should be zero. Most Recent values listed first.
   **   ~~~   ** Demand-to-Supply interface mass flow rate check value iteration history trace: 5.258730E-002,5.258730E-002,5.258730E-002,5.258730E-002,5.258730E-002,5.258730E-002,5.258730E-002,5.258730E-002,5.258730E-002,5.258730E-002,
   **   ~~~   ** Supply-to-demand interface deck 1 mass flow rate check value iteration history trace: 5.258730E-002,5.258730E-002,5.258730E-002,5.258730E-002,5.258730E-002,5.258730E-002,5.258730E-002,5.258730E-002,5.258730E-002,5.258730E-002,
   **   ~~~   ** Air System Named = CENTRAL SYSTEM did not converge for energy
   **   ~~~   ** Check values should be zero. Most Recent values listed first.
   **   ~~~   ** Demand-to-Supply interface energy check value iteration history trace: 1042.089622,1042.089622,1042.089622,1042.089622,1042.089622,1042.089622,1042.089622,1042.089622,1042.089622,1042.089622,
   **   ~~~   ** Supply-to-demand interface deck 1 energy check value iteration history trace: 1938.119218,1938.119218,1938.119218,1938.119218,1938.119218,1938.119218,1938.119218,1938.119218,1938.119218,1938.119218,
   ************* Simulation Error Summary *************
   ** Warning ** The following Report Variables were requested but not generated -- check.rdd file
   **   ~~~   ** Either the IDF did not contain these elements, the variable name is misspelled,
   **   ~~~   ** or the requested variable is an advanced output which requires Output : Diagnostics, DisplayAdvancedReportVariables;
   ************* Key=*, VarName=BASEBOARD TOTAL HEATING ENERGY, Frequency=
   ************* Key=*, VarName=WATER HEATER NATURALGAS ENERGY, Frequency=
   ************* Key=*, VarName=COOLING COIL TOTAL HEATING ENERGY, Frequency=
   ************* There are 34 unused schedules in input.
   ************* There are 388 unused week schedules in input.
   ************* There are 396 unused day schedules in input.
   ************* Use Output:Diagnostics,DisplayUnusedSchedules; to see them.
   *************
   ************* ===== Recurring Error Summary =====
   ************* The following recurring error messages occurred.
   *************
   *************  ** Warning ** "TOTAL HOT WATER LOAD" - Target water temperature should be less than or equal to the hot water temperature error continues...
   *************  **   ~~~   **   This error occurred 85091 total times;
   *************  **   ~~~   **   during Warmup 0 times;
   *************  **   ~~~   **   during Sizing 0 times.
   *************  **   ~~~   **   Max=10.108402  Min=3.773083E-004
   *************
   *************  ** Warning ** Temperature out of range [-100. to 200.] (PsyPsatFnTemp)
   *************  **   ~~~   **   This error occurred 1 total times;
   *************  **   ~~~   **   during Warmup 0 times;
   *************  **   ~~~   **   during Sizing 0 times.
   *************  **   ~~~   **   Max=-138.125969 C  Min=-138.125969 C
   *************
   *************
   ************* ===== Final Error Summary =====
   ************* The following error categories occurred.  Consider correcting or noting.
   ************* Nominally Unused Constructions
   ************* ..The nominally unused constructions warning is provided to alert you to potential conditions that can cause
   ************* ..extra time during simulation. Each construction is calculated by the algorithm indicated in the HeatBalanceAlgorithm
   ************* ..object. You may remove the constructions indicated (when you use the DisplayExtraWarnings option).
   *************
   ************* EnergyPlus Warmup Error Summary. During Warmup: 1 Warning; 0 Severe Errors.
   ************* EnergyPlus Sizing Error Summary. During Sizing: 4 Warning; 0 Severe Errors.
   ************* EnergyPlus Completed Successfully-- 85118 Warning; 0 Severe Errors; Elapsed Time=00hr 05min 14.53sec
