Program Version,EnergyPlus, Version 22.2.0-c249759bad, YMD=2023.09.01 19:54,
   ************* Beginning Zone Sizing Calculations
   ** Warning ** ProcessScheduleInput: Schedule:Constant="ALWAYS ON DISCRETE", Schedule Type Limits Name="ONOFF" not found -- will not be validated
   ** Warning ** Foundation:Kiva="KIVA FOUNDATION", no Interior Horizontal Insulation Material Name defined
   **   ~~~   ** Interior Horizontal Insulation Depth will not be used.
   ** Warning ** CheckUsedConstructions: There are 15 nominally unused constructions in input.
   **   ~~~   ** Each Unused construction is shown.
   ************* Construction=INTERIOR FLOOR
   ************* Construction=INTERIOR WINDOW
   ************* Construction=EXTERIOR DOOR
   ************* Construction=INTERIOR DOOR
   ************* Construction=GABLE CONSTRUCTION
   ************* Construction=CRAWL_FLOOR
   ************* Construction=INSULATED PIPE
   ************* Construction=PLAIN PIPE
   ************* Construction=TDD PIPE
   ************* Construction=TDD DOME
   ************* Construction=TDD DIFFUSER
   ************* Construction=CRAWL WALL
   ************* Construction=CEILING-FLOOR-LAYER
   ************* Construction=SLAB CONSTRUCTION W FULL R10 INSULATION
   ************* Construction=SLAB CONSTRUCTION W FULL R5 INSULATION
   ** Warning ** GetDXCoils: Coil:Heating:DX:SingleSpeed="DX_HEATING_COIL" curve values
   **   ~~~   ** ... Defrost Energy Input Ratio Function of Temperature Curve Name = DEFROSTEIR output is not equal to 1.0 (+ or - 10%) at rated conditions.
   **   ~~~   ** ... Curve output at rated conditions = 0.152
   ************* Beginning System Sizing Calculations
   ************* Beginning Plant Sizing Calculations
   ** Warning ** Coil:WaterHeating:AirToWaterHeatPump:Wrapped "HEAT PUMP WATER HEATER EVAPORATOR": Rated air volume flow rate per watt of rated total water heating capacity is out of range
   **   ~~~   ** Min Rated Vol Flow Per Watt=[4.027E-005], Rated Vol Flow Per Watt=[1.510E-004], Max Rated Vol Flow Per Watt=[8.056E-005]. See Input-Output Reference Manual for valid range.
   ************* SizeFan: : Potential issue with equipment sizing for Fan:OnOff HEAT PUMP WATER HEATER FAN
   **   ~~~   ** User-Specified Maximum Flow Rate [m3/s] = 0.22653
   **   ~~~   ** differs from Design Size Maximum Flow Rate [m3/s] = 7.55250E-002
   **   ~~~   ** This may, or may not, indicate mismatched component sizes.
   **   ~~~   ** Verify that the value entered is intended and is consistent with other components.
   ** Warning ** Water heater = WATER HEATER TANK:  Recovery Efficiency and Energy Factor could not be calculated during the test for standard ratings
   **   ~~~   ** Setpoint was never recovered and/or heater never turned on
   ** Warning ** Check input. Pump nominal power or motor efficiency is set to 0, for pump=MAINS PRESSURE
   ** Warning ** Output:Meter: invalid Key Name="ELECTRIC_RANGE:INTERIOREQUIPMENT:ELECTRICITY" - not found.
   ** Warning ** Output:Meter: invalid Key Name="ELECTRIC_DRYER:INTERIOREQUIPMENT:ELECTRICITY" - not found.
   ** Warning ** Output:Meter: invalid Key Name="HEATRECOVERY:ELECTRICITY" - not found.
   ** Warning ** Output:Meter: invalid Key Name="HEATING:NATURALGAS" - not found.
   ** Warning ** Output:Meter: invalid Key Name="WATERSYSTEMS:NATURALGAS" - not found.
   ** Warning ** Output:Meter: invalid Key Name="PROPANE:FACILITY" - not found.
   ** Warning ** Output:Meter: invalid Key Name="HEATING:PROPANE" - not found.
   ************* Testing Individual Branch Integrity
   ************* All Branches passed integrity testing
   ************* Testing Individual Supply Air Path Integrity
   ************* All Supply Air Paths passed integrity testing
   ************* Testing Individual Return Air Path Integrity
   ************* All Return Air Paths passed integrity testing
   ************* No node connection errors were found.
   ************* Beginning Simulation
   ** Warning ** AirflowNetwork::Solver::validate_distribution: Heat pump water heater is simulated along with an AirflowNetwork but is not included in the AirflowNetwork.
   ** Severe  ** CheckWarmupConvergence: Loads Initialization, Zone="LIVING" did not converge after 25 warmup days.
   **   ~~~   ** See Warmup Convergence Information in .eio file for details.
   **   ~~~   ** ...Environment(SizingPeriod)="EXTREME_WINTER"
   **   ~~~   ** ..Max Temp Comparison = 5.31E-002 vs Temperature Convergence Tolerance=5.00E-002 - Fail Convergence
   **   ~~~   ** ..Min Temp Comparison = 6.60E-004 vs Temperature Convergence Tolerance=5.00E-002 - Pass Convergence
   **   ~~~   ** ..Max Heat Load Comparison = 1.6938E-003 vs Loads Convergence Tolerance=5.00E-002 - Pass Convergence
   **   ~~~   ** ..Max Cool Load Comparison = 5.4319E-003 vs Loads Convergence Tolerance=5.00E-002 - Pass Convergence
   ** Severe  ** CheckWarmupConvergence: Loads Initialization, Zone="ATTIC" did not converge after 25 warmup days.
   **   ~~~   ** ...Environment(SizingPeriod)="EXTREME_WINTER"
   **   ~~~   ** ..Max Temp Comparison = 9.89E-003 vs Temperature Convergence Tolerance=5.00E-002 - Pass Convergence
   **   ~~~   ** ..Min Temp Comparison = 0.27 vs Temperature Convergence Tolerance=5.00E-002 - Fail Convergence
   **   ~~~   ** ..Max Heat Load Comparison = 0.0000 vs Loads Convergence Tolerance=5.00E-002 - Pass Convergence
   **   ~~~   ** ..Max Cool Load Comparison = 0.0000 vs Loads Convergence Tolerance=5.00E-002 - Pass Convergence
   ** Warning ** CalcEquipmentFlowRates: "TOTAL HOT WATER LOAD" - Target water temperature is greater than the hot water temperature by (3.12 C)
   **   ~~~   **  Environment=EXTREME_WINTER, at Simulation time=01/15 06:00 - 06:15
   **   ~~~   ** ...target water temperature     = 53.33 C
   **   ~~~   ** ...hot water temperature        = 50.21 C
   **   ~~~   ** ...Target water temperature should be less than or equal to the hot water temperature. Verify temperature setpoints and schedules.
   ** Warning ** SimHVAC: Maximum iterations (20) exceeded for all HVAC loops, at EXTREME_WINTER, 01/15 19:30 - 19:45
   **   ~~~   ** The solution for one or more of the Air Loop HVAC systems did not appear to converge
   **   ~~~   ** Air System Named = CENTRAL SYSTEM did not converge for mass flow rate
   **   ~~~   ** Check values should be zero. Most Recent values listed first.
   **   ~~~   ** Demand-to-Supply interface mass flow rate check value iteration history trace: 8.073324E-002,8.073324E-002,8.073324E-002,8.073324E-002,8.073324E-002,8.073324E-002,8.073324E-002,8.073324E-002,8.073324E-002,8.073324E-002,
   **   ~~~   ** Supply-to-demand interface deck 1 mass flow rate check value iteration history trace: 8.073324E-002,8.073324E-002,8.073324E-002,8.073324E-002,8.073324E-002,8.073324E-002,8.073324E-002,8.073324E-002,8.073324E-002,8.073324E-002,
   **   ~~~   ** Air System Named = CENTRAL SYSTEM did not converge for energy
   **   ~~~   ** Check values should be zero. Most Recent values listed first.
   **   ~~~   ** Demand-to-Supply interface energy check value iteration history trace: 1597.690323,1597.690323,1597.690323,1597.690323,1597.690323,1597.690322,1597.690322,1597.690322,1597.690322,1597.690322,
   **   ~~~   ** Supply-to-demand interface deck 1 energy check value iteration history trace: 2465.533711,2465.533711,2465.533711,2465.533711,2465.533711,2465.533711,2465.533710,2465.533710,2465.533710,2465.533710,
   ** Severe  ** CheckWarmupConvergence: Loads Initialization, Zone="LIVING" did not converge after 25 warmup days.
   **   ~~~   ** ...Environment(SizingPeriod)="EXTREME_SUMMER"
   **   ~~~   ** ..Max Temp Comparison = 0.14 vs Temperature Convergence Tolerance=5.00E-002 - Fail Convergence
   **   ~~~   ** ..Min Temp Comparison = 9.79E-004 vs Temperature Convergence Tolerance=5.00E-002 - Pass Convergence
   **   ~~~   ** ..Max Heat Load Comparison = 2.7940 vs Loads Convergence Tolerance=5.00E-002 - Fail Convergence
   **   ~~~   ** ..Max Cool Load Comparison = 8.3456E-003 vs Loads Convergence Tolerance=5.00E-002 - Pass Convergence
   ** Warning ** SimHVAC: Maximum iterations (20) exceeded for all HVAC loops, at ANNUAL, 01/06 09:30 - 09:45
   **   ~~~   ** The solution for one or more of the Air Loop HVAC systems did not appear to converge
   **   ~~~   ** Air System Named = CENTRAL SYSTEM did not converge for mass flow rate
   **   ~~~   ** Check values should be zero. Most Recent values listed first.
   **   ~~~   ** Demand-to-Supply interface mass flow rate check value iteration history trace: 6.646829E-002,6.646829E-002,6.646829E-002,6.646829E-002,6.646829E-002,6.646829E-002,6.646829E-002,6.646829E-002,6.646829E-002,6.646829E-002,
   **   ~~~   ** Supply-to-demand interface deck 1 mass flow rate check value iteration history trace: 6.646829E-002,6.646829E-002,6.646829E-002,6.646829E-002,6.646829E-002,6.646829E-002,6.646829E-002,6.646829E-002,6.646829E-002,6.646829E-002,
   **   ~~~   ** Air System Named = CENTRAL SYSTEM did not converge for energy
   **   ~~~   ** Check values should be zero. Most Recent values listed first.
   **   ~~~   ** Demand-to-Supply interface energy check value iteration history trace: 1317.119566,1317.119566,1317.119566,1317.119565,1317.119565,1317.119565,1317.119565,1317.119565,1317.119565,1317.119565,
   **   ~~~   ** Supply-to-demand interface deck 1 energy check value iteration history trace: 2310.796537,2310.796536,2310.796536,2310.796536,2310.796536,2310.796536,2310.796536,2310.796536,2310.796536,2310.796535,
   ** Warning ** SimHVAC: Maximum iterations (20) exceeded for all HVAC loops, at ANNUAL, 01/12 06:45 - 06:52
   **   ~~~   ** The solution for one or more of the Air Loop HVAC systems did not appear to converge
   **   ~~~   ** Air System Named = CENTRAL SYSTEM did not converge for mass flow rate
   **   ~~~   ** Check values should be zero. Most Recent values listed first.
   **   ~~~   ** Demand-to-Supply interface mass flow rate check value iteration history trace: 6.891775E-002,6.891775E-002,6.891775E-002,6.891775E-002,6.891775E-002,6.891775E-002,6.891775E-002,6.891775E-002,6.891775E-002,6.891775E-002,
   **   ~~~   ** Supply-to-demand interface deck 1 mass flow rate check value iteration history trace: 6.891775E-002,6.891775E-002,6.891775E-002,6.891775E-002,6.891775E-002,6.891775E-002,6.891775E-002,6.891775E-002,6.891775E-002,6.891775E-002,
   **   ~~~   ** Air System Named = CENTRAL SYSTEM did not converge for energy
   **   ~~~   ** Check values should be zero. Most Recent values listed first.
   **   ~~~   ** Demand-to-Supply interface energy check value iteration history trace: 1365.460950,1365.460950,1365.460949,1365.460949,1365.460949,1365.460949,1365.460949,1365.460949,1365.460949,1365.460949,
   **   ~~~   ** Supply-to-demand interface deck 1 energy check value iteration history trace: 2335.294152,2335.294152,2335.294152,2335.294152,2335.294152,2335.294152,2335.294152,2335.294151,2335.294151,2335.294151,
   ** Warning ** SimHVAC: Maximum iterations (20) exceeded for all HVAC loops, at ANNUAL, 01/13 17:15 - 17:30
   **   ~~~   ** The solution for one or more of the Air Loop HVAC systems did not appear to converge
   **   ~~~   ** Air System Named = CENTRAL SYSTEM did not converge for mass flow rate
   **   ~~~   ** Check values should be zero. Most Recent values listed first.
   **   ~~~   ** Demand-to-Supply interface mass flow rate check value iteration history trace: 6.163645E-002,6.163645E-002,6.163645E-002,6.163645E-002,6.163645E-002,6.163645E-002,6.163645E-002,6.163645E-002,6.163645E-002,6.163645E-002,
   **   ~~~   ** Supply-to-demand interface deck 1 mass flow rate check value iteration history trace: 6.163645E-002,6.163645E-002,6.163645E-002,6.163645E-002,6.163645E-002,6.163645E-002,6.163645E-002,6.163645E-002,6.163645E-002,6.163645E-002,
   **   ~~~   ** Air System Named = CENTRAL SYSTEM did not converge for energy
   **   ~~~   ** Check values should be zero. Most Recent values listed first.
   **   ~~~   ** Demand-to-Supply interface energy check value iteration history trace: 1222.941160,1222.941160,1222.941159,1222.941159,1222.941159,1222.941159,1222.941159,1222.941159,1222.941159,1222.941159,
   **   ~~~   ** Supply-to-demand interface deck 1 energy check value iteration history trace: 2096.597040,2096.597040,2096.597040,2096.597039,2096.597039,2096.597039,2096.597039,2096.597039,2096.597039,2096.597039,
   ** Warning ** SimHVAC: Maximum iterations (20) exceeded for all HVAC loops, at ANNUAL, 01/17 18:15 - 18:22
   **   ~~~   ** The solution for one or more of the Air Loop HVAC systems did not appear to converge
   **   ~~~   ** Air System Named = CENTRAL SYSTEM did not converge for mass flow rate
   **   ~~~   ** Check values should be zero. Most Recent values listed first.
   **   ~~~   ** Demand-to-Supply interface mass flow rate check value iteration history trace: 6.214435E-002,6.214435E-002,6.214435E-002,6.214435E-002,6.214435E-002,6.214435E-002,6.214435E-002,6.214435E-002,6.214435E-002,6.214435E-002,
   **   ~~~   ** Supply-to-demand interface deck 1 mass flow rate check value iteration history trace: 6.214435E-002,6.214435E-002,6.214435E-002,6.214435E-002,6.214435E-002,6.214435E-002,6.214435E-002,6.214435E-002,6.214435E-002,6.214435E-002,
   **   ~~~   ** Air System Named = CENTRAL SYSTEM did not converge for energy
   **   ~~~   ** Check values should be zero. Most Recent values listed first.
   **   ~~~   ** Demand-to-Supply interface energy check value iteration history trace: 1231.521159,1231.521159,1231.521159,1231.521159,1231.521159,1231.521159,1231.521159,1231.521159,1231.521159,1231.521159,
   **   ~~~   ** Supply-to-demand interface deck 1 energy check value iteration history trace: 2198.006511,2198.006511,2198.006511,2198.006511,2198.006511,2198.006511,2198.006511,2198.006511,2198.006511,2198.006511,
   ** Warning ** SimHVAC: Maximum iterations (20) exceeded for all HVAC loops, at ANNUAL, 01/20 19:00 - 19:15
   **   ~~~   ** The solution for one or more of the Air Loop HVAC systems did not appear to converge
   **   ~~~   ** Air System Named = CENTRAL SYSTEM did not converge for mass flow rate
   **   ~~~   ** Check values should be zero. Most Recent values listed first.
   **   ~~~   ** Demand-to-Supply interface mass flow rate check value iteration history trace: 8.785789E-002,8.785789E-002,8.785789E-002,8.785789E-002,8.785789E-002,8.785789E-002,8.785789E-002,8.785789E-002,8.785789E-002,8.785789E-002,
   **   ~~~   ** Supply-to-demand interface deck 1 mass flow rate check value iteration history trace: 8.785789E-002,8.785789E-002,8.785789E-002,8.785789E-002,8.785789E-002,8.785789E-002,8.785789E-002,8.785789E-002,8.785789E-002,8.785789E-002,
   **   ~~~   ** Air System Named = CENTRAL SYSTEM did not converge for energy
   **   ~~~   ** Check values should be zero. Most Recent values listed first.
   **   ~~~   ** Demand-to-Supply interface energy check value iteration history trace: 1742.081728,1742.081728,1742.081728,1742.081728,1742.081728,1742.081728,1742.081727,1742.081727,1742.081727,1742.081727,
   **   ~~~   ** Supply-to-demand interface deck 1 energy check value iteration history trace: 2584.677909,2584.677909,2584.677909,2584.677908,2584.677908,2584.677908,2584.677908,2584.677908,2584.677907,2584.677907,
   ** Warning ** SimHVAC: Maximum iterations (20) exceeded for all HVAC loops, at ANNUAL, 01/21 12:00 - 12:05
   **   ~~~   ** The solution for one or more of the Air Loop HVAC systems did not appear to converge
   **   ~~~   ** Air System Named = CENTRAL SYSTEM did not converge for mass flow rate
   **   ~~~   ** Check values should be zero. Most Recent values listed first.
   **   ~~~   ** Demand-to-Supply interface mass flow rate check value iteration history trace: 6.988633E-002,6.988633E-002,6.988633E-002,6.988633E-002,6.988633E-002,6.988633E-002,6.988633E-002,6.988633E-002,6.988633E-002,6.988633E-002,
   **   ~~~   ** Supply-to-demand interface deck 1 mass flow rate check value iteration history trace: 6.988633E-002,6.988633E-002,6.988633E-002,6.988633E-002,6.988633E-002,6.988633E-002,6.988633E-002,6.988633E-002,6.988633E-002,6.988633E-002,
   **   ~~~   ** Air System Named = CENTRAL SYSTEM did not converge for energy
   **   ~~~   ** Check values should be zero. Most Recent values listed first.
   **   ~~~   ** Demand-to-Supply interface energy check value iteration history trace: 1384.895369,1384.895369,1384.895369,1384.895369,1384.895369,1384.895368,1384.895368,1384.895368,1384.895368,1384.895368,
   **   ~~~   ** Supply-to-demand interface deck 1 energy check value iteration history trace: 2078.223616,2078.223616,2078.223616,2078.223616,2078.223616,2078.223616,2078.223615,2078.223615,2078.223615,2078.223615,
   ** Warning ** SimHVAC: Maximum iterations (20) exceeded for all HVAC loops, at ANNUAL, 01/25 18:55 - 19:00
   **   ~~~   ** The solution for one or more of the Air Loop HVAC systems did not appear to converge
   **   ~~~   ** Air System Named = CENTRAL SYSTEM did not converge for mass flow rate
   **   ~~~   ** Check values should be zero. Most Recent values listed first.
   **   ~~~   ** Demand-to-Supply interface mass flow rate check value iteration history trace: 8.247061E-002,8.247061E-002,8.247061E-002,8.247061E-002,8.247061E-002,8.247061E-002,8.247061E-002,8.247061E-002,8.247061E-002,8.247061E-002,
   **   ~~~   ** Supply-to-demand interface deck 1 mass flow rate check value iteration history trace: 8.247061E-002,8.247061E-002,8.247061E-002,8.247061E-002,8.247061E-002,8.247061E-002,8.247061E-002,8.247061E-002,8.247061E-002,8.247061E-002,
   **   ~~~   ** Air System Named = CENTRAL SYSTEM did not converge for energy
   **   ~~~   ** Check values should be zero. Most Recent values listed first.
   **   ~~~   ** Demand-to-Supply interface energy check value iteration history trace: 1622.396544,1622.396544,1622.396544,1622.396544,1622.396544,1622.396544,1622.396544,1622.396544,1622.396544,1622.396543,
   **   ~~~   ** Supply-to-demand interface deck 1 energy check value iteration history trace: 2436.453824,2436.453824,2436.453824,2436.453824,2436.453824,2436.453824,2436.453823,2436.453823,2436.453823,2436.453823,
   ** Warning ** SimHVAC: Maximum iterations (20) exceeded for all HVAC loops, at ANNUAL, 01/29 13:45 - 14:00
   **   ~~~   ** The solution for one or more of the Air Loop HVAC systems did not appear to converge
   **   ~~~   ** Air System Named = CENTRAL SYSTEM did not converge for mass flow rate
   **   ~~~   ** Check values should be zero. Most Recent values listed first.
   **   ~~~   ** Demand-to-Supply interface mass flow rate check value iteration history trace: 3.809114E-002,3.809114E-002,3.809114E-002,3.809114E-002,3.809114E-002,3.809114E-002,3.809114E-002,3.809114E-002,3.809114E-002,3.809114E-002,
   **   ~~~   ** Supply-to-demand interface deck 1 mass flow rate check value iteration history trace: 3.809114E-002,3.809114E-002,3.809114E-002,3.809114E-002,3.809114E-002,3.809114E-002,3.809114E-002,3.809114E-002,3.809114E-002,3.809114E-002,
   **   ~~~   ** Air System Named = CENTRAL SYSTEM did not converge for energy
   **   ~~~   ** Check values should be zero. Most Recent values listed first.
   **   ~~~   ** Demand-to-Supply interface energy check value iteration history trace: 754.813873,754.813873,754.813873,754.813873,754.813873,754.813873,754.813873,754.813873,754.813873,754.813873,
   **   ~~~   ** Supply-to-demand interface deck 1 energy check value iteration history trace: 1349.094678,1349.094678,1349.094678,1349.094678,1349.094678,1349.094678,1349.094678,1349.094678,1349.094678,1349.094678,
   ** Warning ** SimHVAC: Maximum iterations (20) exceeded for all HVAC loops, at ANNUAL, 01/29 13:45 - 13:52
   **   ~~~   ** The solution for one or more of the Air Loop HVAC systems did not appear to converge
   **   ~~~   ** Air System Named = CENTRAL SYSTEM did not converge for mass flow rate
   **   ~~~   ** Check values should be zero. Most Recent values listed first.
   **   ~~~   ** Demand-to-Supply interface mass flow rate check value iteration history trace: 5.072823E-002,5.072823E-002,5.072823E-002,5.072823E-002,5.072823E-002,5.072823E-002,5.072823E-002,5.072823E-002,5.072823E-002,5.072823E-002,
   **   ~~~   ** Supply-to-demand interface deck 1 mass flow rate check value iteration history trace: 5.072823E-002,5.072823E-002,5.072823E-002,5.072823E-002,5.072823E-002,5.072823E-002,5.072823E-002,5.072823E-002,5.072823E-002,5.072823E-002,
   **   ~~~   ** Air System Named = CENTRAL SYSTEM did not converge for energy
   **   ~~~   ** Check values should be zero. Most Recent values listed first.
   **   ~~~   ** Demand-to-Supply interface energy check value iteration history trace: 1005.230150,1005.230150,1005.230150,1005.230150,1005.230150,1005.230150,1005.230149,1005.230149,1005.230149,1005.230149,
   **   ~~~   ** Supply-to-demand interface deck 1 energy check value iteration history trace: 1796.618821,1796.618821,1796.618821,1796.618821,1796.618821,1796.618821,1796.618821,1796.618821,1796.618821,1796.618820,
   ** Warning ** SimHVAC: Maximum iterations (20) exceeded for all HVAC loops, at ANNUAL, 01/29 17:00 - 17:08
   **   ~~~   ** The solution for one or more of the Air Loop HVAC systems did not appear to converge
   **   ~~~   ** Air System Named = CENTRAL SYSTEM did not converge for mass flow rate
   **   ~~~   ** Check values should be zero. Most Recent values listed first.
   **   ~~~   ** Demand-to-Supply interface mass flow rate check value iteration history trace: 5.634527E-002,5.634527E-002,5.634527E-002,5.634527E-002,5.634527E-002,5.634527E-002,5.634527E-002,5.634527E-002,5.634527E-002,5.634527E-002,
   **   ~~~   ** Supply-to-demand interface deck 1 mass flow rate check value iteration history trace: 5.634527E-002,5.634527E-002,5.634527E-002,5.634527E-002,5.634527E-002,5.634527E-002,5.634527E-002,5.634527E-002,5.634527E-002,5.634527E-002,
   **   ~~~   ** Air System Named = CENTRAL SYSTEM did not converge for energy
   **   ~~~   ** Check values should be zero. Most Recent values listed first.
   **   ~~~   ** Demand-to-Supply interface energy check value iteration history trace: 1099.587332,1099.587332,1099.587332,1099.587332,1099.587332,1099.587332,1099.587332,1099.587332,1099.587332,1099.587332,
   **   ~~~   ** Supply-to-demand interface deck 1 energy check value iteration history trace: 2016.486563,2016.486563,2016.486563,2016.486563,2016.486563,2016.486563,2016.486563,2016.486563,2016.486562,2016.486562,
   ** Warning ** SimHVAC: Maximum iterations (20) exceeded for all HVAC loops, at ANNUAL, 01/30 00:08 - 00:15
   **   ~~~   ** The solution for one or more of the Air Loop HVAC systems did not appear to converge
   **   ~~~   ** Air System Named = CENTRAL SYSTEM did not converge for mass flow rate
   **   ~~~   ** Check values should be zero. Most Recent values listed first.
   **   ~~~   ** Demand-to-Supply interface mass flow rate check value iteration history trace: 4.117097E-002,4.117097E-002,4.117097E-002,4.117097E-002,4.117097E-002,4.117097E-002,4.117097E-002,4.117097E-002,4.117097E-002,4.117097E-002,
   **   ~~~   ** Supply-to-demand interface deck 1 mass flow rate check value iteration history trace: 4.117097E-002,4.117097E-002,4.117097E-002,4.117097E-002,4.117097E-002,4.117097E-002,4.117097E-002,4.117097E-002,4.117097E-002,4.117097E-002,
   **   ~~~   ** Air System Named = CENTRAL SYSTEM did not converge for energy
   **   ~~~   ** Check values should be zero. Most Recent values listed first.
   **   ~~~   ** Demand-to-Supply interface energy check value iteration history trace: 769.894918,769.894918,769.894918,769.894918,769.894917,769.894917,769.894917,769.894917,769.894917,769.894917,
   **   ~~~   ** Supply-to-demand interface deck 1 energy check value iteration history trace: 1414.641890,1414.641889,1414.641889,1414.641889,1414.641889,1414.641888,1414.641888,1414.641888,1414.641888,1414.641887,
   **   ~~~   ** Node named ZONE INLET NODE shows oscillating temperatures across iterations with a repeated value of 34.194548
   **   ~~~   ** Node named ZONE INLET NODE temperature [C] iteration history trace (most recent first): 34.194548,34.194547,34.194547,34.194547,34.194547,34.194546,34.194546,34.194546,34.194546,34.194545,
   ** Warning ** SimHVAC: Maximum iterations (20) exceeded for all HVAC loops, at ANNUAL, 02/05 12:53 - 13:00
   **   ~~~   ** The solution for one or more of the Air Loop HVAC systems did not appear to converge
   **   ~~~   ** Air System Named = CENTRAL SYSTEM did not converge for mass flow rate
   **   ~~~   ** Check values should be zero. Most Recent values listed first.
   **   ~~~   ** Demand-to-Supply interface mass flow rate check value iteration history trace: 5.617124E-002,5.617124E-002,5.617124E-002,5.617124E-002,5.617124E-002,5.617124E-002,5.617124E-002,5.617124E-002,5.617124E-002,5.617124E-002,
   **   ~~~   ** Supply-to-demand interface deck 1 mass flow rate check value iteration history trace: 5.617124E-002,5.617124E-002,5.617124E-002,5.617124E-002,5.617124E-002,5.617124E-002,5.617124E-002,5.617124E-002,5.617124E-002,5.617124E-002,
   **   ~~~   ** Air System Named = CENTRAL SYSTEM did not converge for energy
   **   ~~~   ** Check values should be zero. Most Recent values listed first.
   **   ~~~   ** Demand-to-Supply interface energy check value iteration history trace: 1099.218253,1099.218253,1099.218253,1099.218253,1099.218253,1099.218253,1099.218253,1099.218253,1099.218253,1099.218253,
   **   ~~~   ** Supply-to-demand interface deck 1 energy check value iteration history trace: 1988.578617,1988.578617,1988.578617,1988.578617,1988.578617,1988.578617,1988.578617,1988.578617,1988.578617,1988.578617,
   ** Warning ** SimHVAC: Maximum iterations (20) exceeded for all HVAC loops, at ANNUAL, 02/13 06:45 - 07:00
   **   ~~~   ** The solution for one or more of the Air Loop HVAC systems did not appear to converge
   **   ~~~   ** Air System Named = CENTRAL SYSTEM did not converge for mass flow rate
   **   ~~~   ** Check values should be zero. Most Recent values listed first.
   **   ~~~   ** Demand-to-Supply interface mass flow rate check value iteration history trace: 6.307677E-002,6.307677E-002,6.307677E-002,6.307677E-002,6.307677E-002,6.307677E-002,6.307677E-002,6.307677E-002,6.307677E-002,6.307677E-002,
   **   ~~~   ** Supply-to-demand interface deck 1 mass flow rate check value iteration history trace: 6.307677E-002,6.307677E-002,6.307677E-002,6.307677E-002,6.307677E-002,6.307677E-002,6.307677E-002,6.307677E-002,6.307677E-002,6.307677E-002,
   **   ~~~   ** Air System Named = CENTRAL SYSTEM did not converge for energy
   **   ~~~   ** Check values should be zero. Most Recent values listed first.
   **   ~~~   ** Demand-to-Supply interface energy check value iteration history trace: 1241.462581,1241.462581,1241.462581,1241.462581,1241.462581,1241.462581,1241.462581,1241.462581,1241.462581,1241.462581,
   **   ~~~   ** Supply-to-demand interface deck 1 energy check value iteration history trace: 2160.003462,2160.003462,2160.003462,2160.003462,2160.003461,2160.003461,2160.003461,2160.003461,2160.003461,2160.003461,
   ************* Simulation Error Summary *************
   ** Warning ** The following Report Variables were requested but not generated -- check.rdd file
   **   ~~~   ** Either the IDF did not contain these elements, the variable name is misspelled,
   **   ~~~   ** or the requested variable is an advanced output which requires Output : Diagnostics, DisplayAdvancedReportVariables;
   ************* Key=*, VarName=BASEBOARD TOTAL HEATING ENERGY, Frequency=
   ************* Key=*, VarName=WATER HEATER NATURALGAS ENERGY, Frequency=
   ************* Key=*, VarName=COOLING COIL TOTAL HEATING ENERGY, Frequency=
   ************* There are 34 unused schedules in input.
   ************* There are 388 unused week schedules in input.
   ************* There are 396 unused day schedules in input.
   ************* Use Output:Diagnostics,DisplayUnusedSchedules; to see them.
   *************
   ************* ===== Recurring Error Summary =====
   ************* The following recurring error messages occurred.
   *************
   *************  ** Warning ** "TOTAL HOT WATER LOAD" - Target water temperature should be less than or equal to the hot water temperature error continues...
   *************  **   ~~~   **   This error occurred 121825 total times;
   *************  **   ~~~   **   during Warmup 0 times;
   *************  **   ~~~   **   during Sizing 0 times.
   *************  **   ~~~   **   Max=11.101449  Min=8.143718E-004
   *************
   *************  ** Warning ** SimHVAC: Exceeding Maximum iterations for all HVAC loops, during ANNUAL continues
   *************  **   ~~~   **   This error occurred 15 total times;
   *************  **   ~~~   **   during Warmup 0 times;
   *************  **   ~~~   **   during Sizing 0 times.
   *************
   *************
   ************* ===== Final Error Summary =====
   ************* The following error categories occurred.  Consider correcting or noting.
   ************* Loads Initialization did not Converge
   ************* ..1) very high thermal mass such as very thick concrete (solution: increase max number of warmup
   ************* ..   days in the BUILDING object);
   ************* ..2) moderate mass and inadequate space conditioning such that the building keeps getting warmer
   ************* ..   and warmer on successive days (solution: add HVAC, check building thermal properties,
   ************* ..   check if infiltration is included, make sure HVAC properly controlled);
   ************* ..3) a soil layer modeled below the concrete slab - (solution remove this layer and read about
   ************* ..   ground temperatures in the Auxiliary Programs document).
   ************* ..4) unreasonable (too small) limits in the BUILDING object for temperature (.4 default) or
   ************* ..   loads tolerances (.04 default)
   ************* Nominally Unused Constructions
   ************* ..The nominally unused constructions warning is provided to alert you to potential conditions that can cause
   ************* ..extra time during simulation. Each construction is calculated by the algorithm indicated in the HeatBalanceAlgorithm
   ************* ..object. You may remove the constructions indicated (when you use the DisplayExtraWarnings option).
   *************
   ************* EnergyPlus Warmup Error Summary. During Warmup: 1 Warning; 3 Severe Errors.
   ************* EnergyPlus Sizing Error Summary. During Sizing: 4 Warning; 0 Severe Errors.
   ************* EnergyPlus Completed Successfully-- 121871 Warning; 3 Severe Errors; Elapsed Time=00hr 01min 38.95sec
