Program Version,EnergyPlus, Version 22.2.0-c249759bad, YMD=2023.09.01 17:43,
   ************* Beginning Zone Sizing Calculations
   ** Warning ** ProcessScheduleInput: Schedule:Constant="ALWAYS ON DISCRETE", Schedule Type Limits Name="ONOFF" not found -- will not be validated
   ** Warning ** Foundation:Kiva="KIVA FOUNDATION", no Interior Horizontal Insulation Material Name defined
   **   ~~~   ** Interior Horizontal Insulation Depth will not be used.
   ** Warning ** CheckUsedConstructions: There are 15 nominally unused constructions in input.
   **   ~~~   ** Each Unused construction is shown.
   ************* Construction=INTERIOR FLOOR
   ************* Construction=INTERIOR WINDOW
   ************* Construction=EXTERIOR DOOR
   ************* Construction=INTERIOR DOOR
   ************* Construction=GABLE CONSTRUCTION
   ************* Construction=CRAWL_FLOOR
   ************* Construction=INSULATED PIPE
   ************* Construction=PLAIN PIPE
   ************* Construction=TDD PIPE
   ************* Construction=TDD DOME
   ************* Construction=TDD DIFFUSER
   ************* Construction=CRAWL WALL
   ************* Construction=CEILING-FLOOR-LAYER
   ************* Construction=SLAB CONSTRUCTION W FULL R10 INSULATION
   ************* Construction=SLAB CONSTRUCTION W FULL R5 INSULATION
   ** Warning ** GetDXCoils: Coil:Heating:DX:SingleSpeed="DX_HEATING_COIL" curve values
   **   ~~~   ** ... Defrost Energy Input Ratio Function of Temperature Curve Name = DEFROSTEIR output is not equal to 1.0 (+ or - 10%) at rated conditions.
   **   ~~~   ** ... Curve output at rated conditions = 0.152
   ************* Beginning System Sizing Calculations
   ************* Beginning Plant Sizing Calculations
   ** Warning ** Coil:WaterHeating:AirToWaterHeatPump:Wrapped "HEAT PUMP WATER HEATER EVAPORATOR": Rated air volume flow rate per watt of rated total water heating capacity is out of range
   **   ~~~   ** Min Rated Vol Flow Per Watt=[4.027E-005], Rated Vol Flow Per Watt=[1.510E-004], Max Rated Vol Flow Per Watt=[8.056E-005]. See Input-Output Reference Manual for valid range.
   ************* SizeFan: : Potential issue with equipment sizing for Fan:OnOff HEAT PUMP WATER HEATER FAN
   **   ~~~   ** User-Specified Maximum Flow Rate [m3/s] = 0.22653
   **   ~~~   ** differs from Design Size Maximum Flow Rate [m3/s] = 7.55250E-002
   **   ~~~   ** This may, or may not, indicate mismatched component sizes.
   **   ~~~   ** Verify that the value entered is intended and is consistent with other components.
   ** Warning ** Water heater = WATER HEATER TANK:  Recovery Efficiency and Energy Factor could not be calculated during the test for standard ratings
   **   ~~~   ** Setpoint was never recovered and/or heater never turned on
   ** Warning ** Check input. Pump nominal power or motor efficiency is set to 0, for pump=MAINS PRESSURE
   ** Warning ** Output:Meter: invalid Key Name="ELECTRIC_RANGE:INTERIOREQUIPMENT:ELECTRICITY" - not found.
   ** Warning ** Output:Meter: invalid Key Name="ELECTRIC_DRYER:INTERIOREQUIPMENT:ELECTRICITY" - not found.
   ** Warning ** Output:Meter: invalid Key Name="HEATRECOVERY:ELECTRICITY" - not found.
   ** Warning ** Output:Meter: invalid Key Name="HEATING:NATURALGAS" - not found.
   ** Warning ** Output:Meter: invalid Key Name="WATERSYSTEMS:NATURALGAS" - not found.
   ** Warning ** Output:Meter: invalid Key Name="PROPANE:FACILITY" - not found.
   ** Warning ** Output:Meter: invalid Key Name="HEATING:PROPANE" - not found.
   ************* Testing Individual Branch Integrity
   ************* All Branches passed integrity testing
   ************* Testing Individual Supply Air Path Integrity
   ************* All Supply Air Paths passed integrity testing
   ************* Testing Individual Return Air Path Integrity
   ************* All Return Air Paths passed integrity testing
   ************* No node connection errors were found.
   ************* Beginning Simulation
   ** Warning ** AirflowNetwork::Solver::validate_distribution: Heat pump water heater is simulated along with an AirflowNetwork but is not included in the AirflowNetwork.
   ** Warning ** CalcEquipmentFlowRates: "TOTAL HOT WATER LOAD" - Target water temperature is greater than the hot water temperature by (2.13 C)
   **   ~~~   **  Environment=EXTREME_WINTER, at Simulation time=01/27 06:00 - 06:15
   **   ~~~   ** ...target water temperature     = 53.33 C
   **   ~~~   ** ...hot water temperature        = 51.20 C
   **   ~~~   ** ...Target water temperature should be less than or equal to the hot water temperature. Verify temperature setpoints and schedules.
   ** Warning ** SimHVAC: Maximum iterations (20) exceeded for all HVAC loops, at ANNUAL, 01/02 13:30 - 13:38
   **   ~~~   ** The solution for one or more of the Air Loop HVAC systems did not appear to converge
   **   ~~~   ** Air System Named = CENTRAL SYSTEM did not converge for mass flow rate
   **   ~~~   ** Check values should be zero. Most Recent values listed first.
   **   ~~~   ** Demand-to-Supply interface mass flow rate check value iteration history trace: 7.447511E-002,7.447511E-002,7.447511E-002,7.447511E-002,7.447511E-002,7.447511E-002,7.447511E-002,7.447511E-002,7.447511E-002,7.447511E-002,
   **   ~~~   ** Supply-to-demand interface deck 1 mass flow rate check value iteration history trace: 7.447511E-002,7.447511E-002,7.447511E-002,7.447511E-002,7.447511E-002,7.447511E-002,7.447511E-002,7.447511E-002,7.447511E-002,7.447511E-002,
   **   ~~~   ** Air System Named = CENTRAL SYSTEM did not converge for energy
   **   ~~~   ** Check values should be zero. Most Recent values listed first.
   **   ~~~   ** Demand-to-Supply interface energy check value iteration history trace: 1475.719545,1475.719545,1475.719545,1475.719545,1475.719545,1475.719545,1475.719545,1475.719545,1475.719545,1475.719545,
   **   ~~~   ** Supply-to-demand interface deck 1 energy check value iteration history trace: 2378.716343,2378.716343,2378.716343,2378.716343,2378.716343,2378.716343,2378.716343,2378.716343,2378.716342,2378.716342,
   ** Warning ** SimHVAC: Maximum iterations (20) exceeded for all HVAC loops, at ANNUAL, 02/19 18:11 - 18:15
   **   ~~~   ** The solution for one or more of the Air Loop HVAC systems did not appear to converge
   **   ~~~   ** Air System Named = CENTRAL SYSTEM did not converge for mass flow rate
   **   ~~~   ** Check values should be zero. Most Recent values listed first.
   **   ~~~   ** Demand-to-Supply interface mass flow rate check value iteration history trace: 8.589561E-002,8.589561E-002,8.589561E-002,8.589561E-002,8.589561E-002,8.589561E-002,8.589561E-002,8.589561E-002,8.589561E-002,8.589561E-002,
   **   ~~~   ** Supply-to-demand interface deck 1 mass flow rate check value iteration history trace: 8.589561E-002,8.589561E-002,8.589561E-002,8.589561E-002,8.589561E-002,8.589561E-002,8.589561E-002,8.589561E-002,8.589561E-002,8.589561E-002,
   **   ~~~   ** Air System Named = CENTRAL SYSTEM did not converge for energy
   **   ~~~   ** Check values should be zero. Most Recent values listed first.
   **   ~~~   ** Demand-to-Supply interface energy check value iteration history trace: 1692.344230,1692.344230,1692.344230,1692.344230,1692.344230,1692.344229,1692.344229,1692.344229,1692.344229,1692.344229,
   **   ~~~   ** Supply-to-demand interface deck 1 energy check value iteration history trace: 2681.900634,2681.900634,2681.900634,2681.900634,2681.900634,2681.900634,2681.900633,2681.900633,2681.900633,2681.900633,
   ** Warning ** SimHVAC: Maximum iterations (20) exceeded for all HVAC loops, at ANNUAL, 03/04 12:15 - 12:30
   **   ~~~   ** The solution for one or more of the Air Loop HVAC systems did not appear to converge
   **   ~~~   ** Air System Named = CENTRAL SYSTEM did not converge for mass flow rate
   **   ~~~   ** Check values should be zero. Most Recent values listed first.
   **   ~~~   ** Demand-to-Supply interface mass flow rate check value iteration history trace: 6.663524E-002,6.663524E-002,6.663524E-002,6.663524E-002,6.663524E-002,6.663524E-002,6.663524E-002,6.663524E-002,6.663524E-002,6.663524E-002,
   **   ~~~   ** Supply-to-demand interface deck 1 mass flow rate check value iteration history trace: 6.663524E-002,6.663524E-002,6.663524E-002,6.663524E-002,6.663524E-002,6.663524E-002,6.663524E-002,6.663524E-002,6.663524E-002,6.663524E-002,
   **   ~~~   ** Air System Named = CENTRAL SYSTEM did not converge for energy
   **   ~~~   ** Check values should be zero. Most Recent values listed first.
   **   ~~~   ** Demand-to-Supply interface energy check value iteration history trace: 1320.525593,1320.525593,1320.525592,1320.525592,1320.525592,1320.525592,1320.525592,1320.525592,1320.525592,1320.525592,
   **   ~~~   ** Supply-to-demand interface deck 1 energy check value iteration history trace: 2155.278875,2155.278875,2155.278875,2155.278875,2155.278875,2155.278875,2155.278875,2155.278875,2155.278874,2155.278874,
   ** Warning ** SimHVAC: Maximum iterations (20) exceeded for all HVAC loops, at ANNUAL, 04/06 08:45 - 08:47
   **   ~~~   ** The solution for one or more of the Air Loop HVAC systems did not appear to converge
   **   ~~~   ** Air System Named = CENTRAL SYSTEM did not converge for mass flow rate
   **   ~~~   ** Check values should be zero. Most Recent values listed first.
   **   ~~~   ** Demand-to-Supply interface mass flow rate check value iteration history trace: 5.463838E-002,5.463838E-002,5.463838E-002,5.463838E-002,5.463838E-002,5.463838E-002,5.463838E-002,5.463838E-002,5.463838E-002,5.463838E-002,
   **   ~~~   ** Supply-to-demand interface deck 1 mass flow rate check value iteration history trace: 5.463838E-002,5.463838E-002,5.463838E-002,5.463838E-002,5.463838E-002,5.463838E-002,5.463838E-002,5.463838E-002,5.463838E-002,5.463838E-002,
   **   ~~~   ** Air System Named = CENTRAL SYSTEM did not converge for energy
   **   ~~~   ** Check values should be zero. Most Recent values listed first.
   **   ~~~   ** Demand-to-Supply interface energy check value iteration history trace: 1080.258702,1080.258702,1080.258702,1080.258702,1080.258702,1080.258702,1080.258701,1080.258701,1080.258701,1080.258701,
   **   ~~~   ** Supply-to-demand interface deck 1 energy check value iteration history trace: 2038.530002,2038.530002,2038.530002,2038.530002,2038.530002,2038.530002,2038.530002,2038.530002,2038.530002,2038.530002,
   ** Warning ** SimHVAC: Maximum iterations (20) exceeded for all HVAC loops, at ANNUAL, 04/11 05:04 - 05:08
   **   ~~~   ** The solution for one or more of the Air Loop HVAC systems did not appear to converge
   **   ~~~   ** Air System Named = CENTRAL SYSTEM did not converge for mass flow rate
   **   ~~~   ** Check values should be zero. Most Recent values listed first.
   **   ~~~   ** Demand-to-Supply interface mass flow rate check value iteration history trace: 6.176793E-002,6.176793E-002,6.176793E-002,6.176793E-002,6.176793E-002,6.176793E-002,6.176793E-002,6.176793E-002,6.176793E-002,6.176793E-002,
   **   ~~~   ** Supply-to-demand interface deck 1 mass flow rate check value iteration history trace: 6.176793E-002,6.176793E-002,6.176793E-002,6.176793E-002,6.176793E-002,6.176793E-002,6.176793E-002,6.176793E-002,6.176793E-002,6.176793E-002,
   **   ~~~   ** Air System Named = CENTRAL SYSTEM did not converge for energy
   **   ~~~   ** Check values should be zero. Most Recent values listed first.
   **   ~~~   ** Demand-to-Supply interface energy check value iteration history trace: 1203.550382,1203.550382,1203.550382,1203.550382,1203.550382,1203.550382,1203.550382,1203.550382,1203.550382,1203.550381,
   **   ~~~   ** Supply-to-demand interface deck 1 energy check value iteration history trace: 2000.065853,2000.065853,2000.065853,2000.065853,2000.065853,2000.065853,2000.065852,2000.065852,2000.065852,2000.065852,
   ** Warning ** SimHVAC: Maximum iterations (20) exceeded for all HVAC loops, at ANNUAL, 04/22 08:14 - 08:15
   **   ~~~   ** The solution for one or more of the Air Loop HVAC systems did not appear to converge
   **   ~~~   ** Air System Named = CENTRAL SYSTEM did not converge for mass flow rate
   **   ~~~   ** Check values should be zero. Most Recent values listed first.
   **   ~~~   ** Demand-to-Supply interface mass flow rate check value iteration history trace: 5.467520E-002,5.467520E-002,5.467520E-002,5.467520E-002,5.467520E-002,5.467520E-002,5.467520E-002,5.467520E-002,5.467520E-002,5.467520E-002,
   **   ~~~   ** Supply-to-demand interface deck 1 mass flow rate check value iteration history trace: 5.467520E-002,5.467520E-002,5.467520E-002,5.467520E-002,5.467520E-002,5.467520E-002,5.467520E-002,5.467520E-002,5.467520E-002,5.467520E-002,
   **   ~~~   ** Air System Named = CENTRAL SYSTEM did not converge for energy
   **   ~~~   ** Check values should be zero. Most Recent values listed first.
   **   ~~~   ** Demand-to-Supply interface energy check value iteration history trace: 1082.860354,1082.860354,1082.860354,1082.860353,1082.860353,1082.860353,1082.860353,1082.860353,1082.860353,1082.860353,
   **   ~~~   ** Supply-to-demand interface deck 1 energy check value iteration history trace: 2024.639682,2024.639682,2024.639682,2024.639682,2024.639682,2024.639682,2024.639682,2024.639682,2024.639682,2024.639682,
   ** Warning ** SimHVAC: Maximum iterations (20) exceeded for all HVAC loops, at ANNUAL, 04/25 04:15 - 04:20
   **   ~~~   ** The solution for one or more of the Air Loop HVAC systems did not appear to converge
   **   ~~~   ** Air System Named = CENTRAL SYSTEM did not converge for mass flow rate
   **   ~~~   ** Check values should be zero. Most Recent values listed first.
   **   ~~~   ** Demand-to-Supply interface mass flow rate check value iteration history trace: 6.534827E-002,6.534827E-002,6.534827E-002,6.534827E-002,6.534827E-002,6.534827E-002,6.534827E-002,6.534827E-002,6.534827E-002,6.534827E-002,
   **   ~~~   ** Supply-to-demand interface deck 1 mass flow rate check value iteration history trace: 6.534827E-002,6.534827E-002,6.534827E-002,6.534827E-002,6.534827E-002,6.534827E-002,6.534827E-002,6.534827E-002,6.534827E-002,6.534827E-002,
   **   ~~~   ** Air System Named = CENTRAL SYSTEM did not converge for energy
   **   ~~~   ** Check values should be zero. Most Recent values listed first.
   **   ~~~   ** Demand-to-Supply interface energy check value iteration history trace: 1245.092853,1245.092853,1245.092853,1245.092853,1245.092853,1245.092853,1245.092853,1245.092853,1245.092853,1245.092853,
   **   ~~~   ** Supply-to-demand interface deck 1 energy check value iteration history trace: 2095.062551,2095.062551,2095.062551,2095.062551,2095.062551,2095.062550,2095.062550,2095.062550,2095.062550,2095.062550,
   ** Warning ** SimHVAC: Maximum iterations (20) exceeded for all HVAC loops, at ANNUAL, 06/14 06:08 - 06:15
   **   ~~~   ** The solution for one or more of the Air Loop HVAC systems did not appear to converge
   **   ~~~   ** Air System Named = CENTRAL SYSTEM did not converge for mass flow rate
   **   ~~~   ** Check values should be zero. Most Recent values listed first.
   **   ~~~   ** Demand-to-Supply interface mass flow rate check value iteration history trace: 0.158964,0.158964,0.158964,0.158964,0.158964,0.158964,0.158964,0.158964,0.158964,0.158964,
   **   ~~~   ** Supply-to-demand interface deck 1 mass flow rate check value iteration history trace: 0.158964,0.158964,0.158964,0.158964,0.158964,0.158964,0.158964,0.158964,0.158964,0.158964,
   **   ~~~   ** Air System Named = CENTRAL SYSTEM did not converge for energy
   **   ~~~   ** Check values should be zero. Most Recent values listed first.
   **   ~~~   ** Demand-to-Supply interface energy check value iteration history trace: 3789.525630,3789.525631,3789.525631,3789.525631,3789.525631,3789.525632,3789.525632,3789.525632,3789.525632,3789.525633,
   **   ~~~   ** Supply-to-demand interface deck 1 energy check value iteration history trace: 1718.129836,1718.129836,1718.129836,1718.129836,1718.129836,1718.129836,1718.129836,1718.129837,1718.129837,1718.129837,
   ** Warning ** SimHVAC: Maximum iterations (20) exceeded for all HVAC loops, at ANNUAL, 06/15 01:08 - 01:15
   **   ~~~   ** The solution for one or more of the Air Loop HVAC systems did not appear to converge
   **   ~~~   ** Air System Named = CENTRAL SYSTEM did not converge for mass flow rate
   **   ~~~   ** Check values should be zero. Most Recent values listed first.
   **   ~~~   ** Demand-to-Supply interface mass flow rate check value iteration history trace: 7.640776E-002,7.640776E-002,7.640776E-002,7.640776E-002,7.640776E-002,7.640776E-002,7.640776E-002,7.640776E-002,7.640776E-002,7.640776E-002,
   **   ~~~   ** Supply-to-demand interface deck 1 mass flow rate check value iteration history trace: 7.640776E-002,7.640776E-002,7.640776E-002,7.640776E-002,7.640776E-002,7.640776E-002,7.640776E-002,7.640776E-002,7.640776E-002,7.640776E-002,
   **   ~~~   ** Air System Named = CENTRAL SYSTEM did not converge for energy
   **   ~~~   ** Check values should be zero. Most Recent values listed first.
   **   ~~~   ** Demand-to-Supply interface energy check value iteration history trace: 1880.211571,1880.211572,1880.211572,1880.211573,1880.211573,1880.211574,1880.211574,1880.211574,1880.211575,1880.211575,
   **   ~~~   ** Supply-to-demand interface deck 1 energy check value iteration history trace: 793.914553,793.914553,793.914553,793.914553,793.914553,793.914554,793.914554,793.914554,793.914554,793.914554,
   ** Warning ** SimHVAC: Maximum iterations (20) exceeded for all HVAC loops, at ANNUAL, 09/12 08:58 - 09:00
   **   ~~~   ** The solution for one or more of the Air Loop HVAC systems did not appear to converge
   **   ~~~   ** Air System Named = CENTRAL SYSTEM did not converge for mass flow rate
   **   ~~~   ** Check values should be zero. Most Recent values listed first.
   **   ~~~   ** Demand-to-Supply interface mass flow rate check value iteration history trace: 4.845922E-002,4.845922E-002,4.845922E-002,4.845922E-002,4.845922E-002,4.845922E-002,4.845922E-002,4.845922E-002,4.845922E-002,4.845922E-002,
   **   ~~~   ** Supply-to-demand interface deck 1 mass flow rate check value iteration history trace: 4.845922E-002,4.845922E-002,4.845922E-002,4.845922E-002,4.845922E-002,4.845922E-002,4.845922E-002,4.845922E-002,4.845922E-002,4.845922E-002,
   **   ~~~   ** Air System Named = CENTRAL SYSTEM did not converge for energy
   **   ~~~   ** Check values should be zero. Most Recent values listed first.
   **   ~~~   ** Demand-to-Supply interface energy check value iteration history trace: 955.716674,955.716674,955.716674,955.716674,955.716674,955.716674,955.716674,955.716674,955.716674,955.716674,
   **   ~~~   ** Supply-to-demand interface deck 1 energy check value iteration history trace: 1825.248562,1825.248562,1825.248562,1825.248562,1825.248562,1825.248562,1825.248562,1825.248562,1825.248562,1825.248562,
   ** Warning ** SimHVAC: Maximum iterations (20) exceeded for all HVAC loops, at ANNUAL, 09/15 11:30 - 11:45
   **   ~~~   ** The solution for one or more of the Air Loop HVAC systems did not appear to converge
   **   ~~~   ** Air System Named = CENTRAL SYSTEM did not converge for mass flow rate
   **   ~~~   ** Check values should be zero. Most Recent values listed first.
   **   ~~~   ** Demand-to-Supply interface mass flow rate check value iteration history trace: 0.101819,0.101819,0.101819,0.101819,0.101819,0.101819,0.101819,0.101819,0.101819,0.101819,
   **   ~~~   ** Supply-to-demand interface deck 1 mass flow rate check value iteration history trace: 0.101819,0.101819,0.101819,0.101819,0.101819,0.101819,0.101819,0.101819,0.101819,0.101819,
   **   ~~~   ** Air System Named = CENTRAL SYSTEM did not converge for energy
   **   ~~~   ** Check values should be zero. Most Recent values listed first.
   **   ~~~   ** Demand-to-Supply interface energy check value iteration history trace: 2448.176902,2448.176902,2448.176902,2448.176902,2448.176902,2448.176902,2448.176902,2448.176903,2448.176903,2448.176903,
   **   ~~~   ** Supply-to-demand interface deck 1 energy check value iteration history trace: 894.506332,894.506333,894.506333,894.506333,894.506333,894.506333,894.506333,894.506333,894.506333,894.506333,
   ** Warning ** SimHVAC: Maximum iterations (20) exceeded for all HVAC loops, at ANNUAL, 10/20 07:00 - 07:15
   **   ~~~   ** The solution for one or more of the Air Loop HVAC systems did not appear to converge
   **   ~~~   ** Air System Named = CENTRAL SYSTEM did not converge for mass flow rate
   **   ~~~   ** Check values should be zero. Most Recent values listed first.
   **   ~~~   ** Demand-to-Supply interface mass flow rate check value iteration history trace: 4.856635E-002,4.856635E-002,4.856635E-002,4.856635E-002,4.856635E-002,4.856635E-002,4.856635E-002,4.856635E-002,4.856635E-002,4.856635E-002,
   **   ~~~   ** Supply-to-demand interface deck 1 mass flow rate check value iteration history trace: 4.856635E-002,4.856635E-002,4.856635E-002,4.856635E-002,4.856635E-002,4.856635E-002,4.856635E-002,4.856635E-002,4.856635E-002,4.856635E-002,
   **   ~~~   ** Air System Named = CENTRAL SYSTEM did not converge for energy
   **   ~~~   ** Check values should be zero. Most Recent values listed first.
   **   ~~~   ** Demand-to-Supply interface energy check value iteration history trace: 962.380156,962.380156,962.380156,962.380156,962.380156,962.380156,962.380156,962.380156,962.380156,962.380156,
   **   ~~~   ** Supply-to-demand interface deck 1 energy check value iteration history trace: 1836.157564,1836.157564,1836.157564,1836.157564,1836.157564,1836.157564,1836.157564,1836.157564,1836.157564,1836.157564,
   ** Warning ** SimHVAC: Maximum iterations (20) exceeded for all HVAC loops, at ANNUAL, 11/04 11:45 - 12:00
   **   ~~~   ** The solution for one or more of the Air Loop HVAC systems did not appear to converge
   **   ~~~   ** Air System Named = CENTRAL SYSTEM did not converge for mass flow rate
   **   ~~~   ** Check values should be zero. Most Recent values listed first.
   **   ~~~   ** Demand-to-Supply interface mass flow rate check value iteration history trace: 4.922234E-002,4.922234E-002,4.922234E-002,4.922234E-002,4.922234E-002,4.922234E-002,4.922234E-002,4.922234E-002,4.922234E-002,4.922234E-002,
   **   ~~~   ** Supply-to-demand interface deck 1 mass flow rate check value iteration history trace: 4.922234E-002,4.922234E-002,4.922234E-002,4.922234E-002,4.922234E-002,4.922234E-002,4.922234E-002,4.922234E-002,4.922234E-002,4.922234E-002,
   **   ~~~   ** Air System Named = CENTRAL SYSTEM did not converge for energy
   **   ~~~   ** Check values should be zero. Most Recent values listed first.
   **   ~~~   ** Demand-to-Supply interface energy check value iteration history trace: 975.411128,975.411128,975.411128,975.411128,975.411128,975.411128,975.411128,975.411128,975.411128,975.411128,
   **   ~~~   ** Supply-to-demand interface deck 1 energy check value iteration history trace: 1803.847130,1803.847129,1803.847129,1803.847129,1803.847129,1803.847129,1803.847129,1803.847129,1803.847129,1803.847129,
   ** Warning ** SimHVAC: Maximum iterations (20) exceeded for all HVAC loops, at ANNUAL, 11/11 18:25 - 18:30
   **   ~~~   ** The solution for one or more of the Air Loop HVAC systems did not appear to converge
   **   ~~~   ** Air System Named = CENTRAL SYSTEM did not converge for mass flow rate
   **   ~~~   ** Check values should be zero. Most Recent values listed first.
   **   ~~~   ** Demand-to-Supply interface mass flow rate check value iteration history trace: 5.049864E-002,5.049864E-002,5.049864E-002,5.049864E-002,5.049864E-002,5.049864E-002,5.049864E-002,5.049864E-002,5.049864E-002,5.049864E-002,
   **   ~~~   ** Supply-to-demand interface deck 1 mass flow rate check value iteration history trace: 5.049864E-002,5.049864E-002,5.049864E-002,5.049864E-002,5.049864E-002,5.049864E-002,5.049864E-002,5.049864E-002,5.049864E-002,5.049864E-002,
   **   ~~~   ** Air System Named = CENTRAL SYSTEM did not converge for energy
   **   ~~~   ** Check values should be zero. Most Recent values listed first.
   **   ~~~   ** Demand-to-Supply interface energy check value iteration history trace: 995.146231,995.146231,995.146231,995.146231,995.146231,995.146231,995.146231,995.146231,995.146231,995.146231,
   **   ~~~   ** Supply-to-demand interface deck 1 energy check value iteration history trace: 1843.609455,1843.609455,1843.609455,1843.609455,1843.609455,1843.609455,1843.609455,1843.609455,1843.609455,1843.609455,
   ************* Simulation Error Summary *************
   ** Warning ** The following Report Variables were requested but not generated -- check.rdd file
   **   ~~~   ** Either the IDF did not contain these elements, the variable name is misspelled,
   **   ~~~   ** or the requested variable is an advanced output which requires Output : Diagnostics, DisplayAdvancedReportVariables;
   ************* Key=*, VarName=BASEBOARD TOTAL HEATING ENERGY, Frequency=
   ************* Key=*, VarName=WATER HEATER NATURALGAS ENERGY, Frequency=
   ************* Key=*, VarName=COOLING COIL TOTAL HEATING ENERGY, Frequency=
   ************* There are 34 unused schedules in input.
   ************* There are 388 unused week schedules in input.
   ************* There are 396 unused day schedules in input.
   ************* Use Output:Diagnostics,DisplayUnusedSchedules; to see them.
   *************
   ************* ===== Recurring Error Summary =====
   ************* The following recurring error messages occurred.
   *************
   *************  ** Warning ** "TOTAL HOT WATER LOAD" - Target water temperature should be less than or equal to the hot water temperature error continues...
   *************  **   ~~~   **   This error occurred 109285 total times;
   *************  **   ~~~   **   during Warmup 0 times;
   *************  **   ~~~   **   during Sizing 0 times.
   *************  **   ~~~   **   Max=10.378942  Min=4.826871E-004
   *************
   *************  ** Warning ** SimHVAC: Exceeding Maximum iterations for all HVAC loops, during ANNUAL continues
   *************  **   ~~~   **   This error occurred 1 total times;
   *************  **   ~~~   **   during Warmup 0 times;
   *************  **   ~~~   **   during Sizing 0 times.
   *************
   *************
   ************* ===== Final Error Summary =====
   ************* The following error categories occurred.  Consider correcting or noting.
   ************* Nominally Unused Constructions
   ************* ..The nominally unused constructions warning is provided to alert you to potential conditions that can cause
   ************* ..extra time during simulation. Each construction is calculated by the algorithm indicated in the HeatBalanceAlgorithm
   ************* ..object. You may remove the constructions indicated (when you use the DisplayExtraWarnings option).
   *************
   ************* EnergyPlus Warmup Error Summary. During Warmup: 1 Warning; 0 Severe Errors.
   ************* EnergyPlus Sizing Error Summary. During Sizing: 4 Warning; 0 Severe Errors.
   ************* EnergyPlus Completed Successfully-- 109317 Warning; 0 Severe Errors; Elapsed Time=00hr 05min 43.28sec
