Program Version,EnergyPlus, Version 22.2.0-c249759bad, YMD=2023.09.01 19:41,
   ************* Beginning Zone Sizing Calculations
   ** Warning ** ProcessScheduleInput: Schedule:Constant="ALWAYS ON DISCRETE", Schedule Type Limits Name="ONOFF" not found -- will not be validated
   ** Warning ** Foundation:Kiva="KIVA FOUNDATION", no Interior Horizontal Insulation Material Name defined
   **   ~~~   ** Interior Horizontal Insulation Depth will not be used.
   ** Warning ** CheckUsedConstructions: There are 15 nominally unused constructions in input.
   **   ~~~   ** Each Unused construction is shown.
   ************* Construction=INTERIOR FLOOR
   ************* Construction=INTERIOR WINDOW
   ************* Construction=EXTERIOR DOOR
   ************* Construction=INTERIOR DOOR
   ************* Construction=GABLE CONSTRUCTION
   ************* Construction=CRAWL_FLOOR
   ************* Construction=INSULATED PIPE
   ************* Construction=PLAIN PIPE
   ************* Construction=TDD PIPE
   ************* Construction=TDD DOME
   ************* Construction=TDD DIFFUSER
   ************* Construction=CRAWL WALL
   ************* Construction=CEILING-FLOOR-LAYER
   ************* Construction=SLAB CONSTRUCTION W FULL R10 INSULATION
   ************* Construction=SLAB CONSTRUCTION W FULL R5 INSULATION
   ** Warning ** GetDXCoils: Coil:Heating:DX:SingleSpeed="DX_HEATING_COIL" curve values
   **   ~~~   ** ... Defrost Energy Input Ratio Function of Temperature Curve Name = DEFROSTEIR output is not equal to 1.0 (+ or - 10%) at rated conditions.
   **   ~~~   ** ... Curve output at rated conditions = 0.152
   ************* Beginning System Sizing Calculations
   ************* Beginning Plant Sizing Calculations
   ** Warning ** SizeDXCoil Coil:Cooling:DX:SingleSpeed DX_COOLING_COIL
   **   ~~~   ** ...Gross Rated Total Cooling Capacity [W] will be limited by the maximum rated volume flow per rated total capacity ratio.
   **   ~~~   ** ...DX coil volume flow rate ( m3/s ) = 0.500072
   **   ~~~   ** ...Requested capacity ( W ) = 5682.695
   **   ~~~   ** ...Requested flow/capacity ratio ( m3/s/W ) = 8.799E-005
   **   ~~~   ** ...Maximum flow/capacity ratio ( m3/s/W ) = 6.041E-005
   **   ~~~   ** ...Adjusted capacity ( W ) = 8277.974
   ** Warning ** Coil:WaterHeating:AirToWaterHeatPump:Wrapped "HEAT PUMP WATER HEATER EVAPORATOR": Rated air volume flow rate per watt of rated total water heating capacity is out of range
   **   ~~~   ** Min Rated Vol Flow Per Watt=[4.027E-005], Rated Vol Flow Per Watt=[1.510E-004], Max Rated Vol Flow Per Watt=[8.056E-005]. See Input-Output Reference Manual for valid range.
   ************* SizeFan: : Potential issue with equipment sizing for Fan:OnOff HEAT PUMP WATER HEATER FAN
   **   ~~~   ** User-Specified Maximum Flow Rate [m3/s] = 0.22653
   **   ~~~   ** differs from Design Size Maximum Flow Rate [m3/s] = 7.55250E-002
   **   ~~~   ** This may, or may not, indicate mismatched component sizes.
   **   ~~~   ** Verify that the value entered is intended and is consistent with other components.
   ** Warning ** Water heater = WATER HEATER TANK:  Recovery Efficiency and Energy Factor could not be calculated during the test for standard ratings
   **   ~~~   ** Setpoint was never recovered and/or heater never turned on
   ** Warning ** Check input. Pump nominal power or motor efficiency is set to 0, for pump=MAINS PRESSURE
   ** Warning ** Output:Meter: invalid Key Name="ELECTRIC_RANGE:INTERIOREQUIPMENT:ELECTRICITY" - not found.
   ** Warning ** Output:Meter: invalid Key Name="ELECTRIC_DRYER:INTERIOREQUIPMENT:ELECTRICITY" - not found.
   ** Warning ** Output:Meter: invalid Key Name="HEATRECOVERY:ELECTRICITY" - not found.
   ** Warning ** Output:Meter: invalid Key Name="HEATING:NATURALGAS" - not found.
   ** Warning ** Output:Meter: invalid Key Name="WATERSYSTEMS:NATURALGAS" - not found.
   ** Warning ** Output:Meter: invalid Key Name="PROPANE:FACILITY" - not found.
   ** Warning ** Output:Meter: invalid Key Name="HEATING:PROPANE" - not found.
   ************* Testing Individual Branch Integrity
   ************* All Branches passed integrity testing
   ************* Testing Individual Supply Air Path Integrity
   ************* All Supply Air Paths passed integrity testing
   ************* Testing Individual Return Air Path Integrity
   ************* All Return Air Paths passed integrity testing
   ************* No node connection errors were found.
   ************* Beginning Simulation
   ** Warning ** AirflowNetwork::Solver::validate_distribution: Heat pump water heater is simulated along with an AirflowNetwork but is not included in the AirflowNetwork.
   ** Warning ** CalcEquipmentFlowRates: "TOTAL HOT WATER LOAD" - Target water temperature is greater than the hot water temperature by (5.87 C)
   **   ~~~   **  Environment=EXTREME_WINTER, at Simulation time=01/27 06:00 - 06:15
   **   ~~~   ** ...target water temperature     = 53.33 C
   **   ~~~   ** ...hot water temperature        = 47.46 C
   **   ~~~   ** ...Target water temperature should be less than or equal to the hot water temperature. Verify temperature setpoints and schedules.
   ** Warning ** SimHVAC: Maximum iterations (20) exceeded for all HVAC loops, at EXTREME_WINTER, 01/28 14:45 - 15:00
   **   ~~~   ** The solution for one or more of the Air Loop HVAC systems did not appear to converge
   **   ~~~   ** Air System Named = CENTRAL SYSTEM did not converge for mass flow rate
   **   ~~~   ** Check values should be zero. Most Recent values listed first.
   **   ~~~   ** Demand-to-Supply interface mass flow rate check value iteration history trace: 6.335137E-002,6.335137E-002,6.335137E-002,6.335137E-002,6.335137E-002,6.335137E-002,6.335137E-002,6.335137E-002,6.335137E-002,6.335137E-002,
   **   ~~~   ** Supply-to-demand interface deck 1 mass flow rate check value iteration history trace: 6.335137E-002,6.335137E-002,6.335137E-002,6.335137E-002,6.335137E-002,6.335137E-002,6.335137E-002,6.335137E-002,6.335137E-002,6.335137E-002,
   **   ~~~   ** Air System Named = CENTRAL SYSTEM did not converge for energy
   **   ~~~   ** Check values should be zero. Most Recent values listed first.
   **   ~~~   ** Demand-to-Supply interface energy check value iteration history trace: 1255.427453,1255.427452,1255.427452,1255.427452,1255.427452,1255.427452,1255.427452,1255.427452,1255.427452,1255.427452,
   **   ~~~   ** Supply-to-demand interface deck 1 energy check value iteration history trace: 1999.645447,1999.645447,1999.645447,1999.645446,1999.645446,1999.645446,1999.645446,1999.645446,1999.645446,1999.645446,
   ** Severe  ** CheckWarmupConvergence: Loads Initialization, Zone="LIVING" did not converge after 25 warmup days.
   **   ~~~   ** See Warmup Convergence Information in .eio file for details.
   **   ~~~   ** ...Environment(RunPeriod)="ANNUAL"
   **   ~~~   ** ..Max Temp Comparison = 7.58E-002 vs Temperature Convergence Tolerance=5.00E-002 - Fail Convergence
   **   ~~~   ** ..Min Temp Comparison = 2.48E-003 vs Temperature Convergence Tolerance=5.00E-002 - Pass Convergence
   **   ~~~   ** ..Max Heat Load Comparison = 2.8980E-003 vs Loads Convergence Tolerance=5.00E-002 - Pass Convergence
   **   ~~~   ** ..Max Cool Load Comparison = 6.5480E-003 vs Loads Convergence Tolerance=5.00E-002 - Pass Convergence
   ** Severe  ** CheckWarmupConvergence: Loads Initialization, Zone="ATTIC" did not converge after 25 warmup days.
   **   ~~~   ** ...Environment(RunPeriod)="ANNUAL"
   **   ~~~   ** ..Max Temp Comparison = 5.50E-002 vs Temperature Convergence Tolerance=5.00E-002 - Fail Convergence
   **   ~~~   ** ..Min Temp Comparison = 1.54E-002 vs Temperature Convergence Tolerance=5.00E-002 - Pass Convergence
   **   ~~~   ** ..Max Heat Load Comparison = 0.0000 vs Loads Convergence Tolerance=5.00E-002 - Pass Convergence
   **   ~~~   ** ..Max Cool Load Comparison = 0.0000 vs Loads Convergence Tolerance=5.00E-002 - Pass Convergence
   ** Warning ** SimHVAC: Maximum iterations (20) exceeded for all HVAC loops, at ANNUAL, 01/01 15:25 - 15:30
   **   ~~~   ** The solution for one or more of the Air Loop HVAC systems did not appear to converge
   **   ~~~   ** Air System Named = CENTRAL SYSTEM did not converge for mass flow rate
   **   ~~~   ** Check values should be zero. Most Recent values listed first.
   **   ~~~   ** Demand-to-Supply interface mass flow rate check value iteration history trace: 3.069125E-002,3.069125E-002,3.069125E-002,3.069125E-002,3.069125E-002,3.069125E-002,3.069125E-002,3.069125E-002,3.069125E-002,3.069125E-002,
   **   ~~~   ** Supply-to-demand interface deck 1 mass flow rate check value iteration history trace: 3.069125E-002,3.069125E-002,3.069125E-002,3.069125E-002,3.069125E-002,3.069125E-002,3.069125E-002,3.069125E-002,3.069125E-002,3.069125E-002,
   **   ~~~   ** Air System Named = CENTRAL SYSTEM did not converge for energy
   **   ~~~   ** Check values should be zero. Most Recent values listed first.
   **   ~~~   ** Demand-to-Supply interface energy check value iteration history trace: 603.932317,603.932317,603.932317,603.932317,603.932317,603.932317,603.932317,603.932317,603.932317,603.932317,
   **   ~~~   ** Supply-to-demand interface deck 1 energy check value iteration history trace: 1045.651717,1045.651717,1045.651717,1045.651717,1045.651717,1045.651717,1045.651717,1045.651717,1045.651717,1045.651716,
   ** Warning ** SimHVAC: Maximum iterations (20) exceeded for all HVAC loops, at ANNUAL, 01/02 11:00 - 11:15
   **   ~~~   ** The solution for one or more of the Air Loop HVAC systems did not appear to converge
   **   ~~~   ** Air System Named = CENTRAL SYSTEM did not converge for mass flow rate
   **   ~~~   ** Check values should be zero. Most Recent values listed first.
   **   ~~~   ** Demand-to-Supply interface mass flow rate check value iteration history trace: 5.562729E-002,5.562729E-002,5.562729E-002,5.562729E-002,5.562729E-002,5.562729E-002,5.562729E-002,5.562729E-002,5.562729E-002,5.562729E-002,
   **   ~~~   ** Supply-to-demand interface deck 1 mass flow rate check value iteration history trace: 5.562729E-002,5.562729E-002,5.562729E-002,5.562729E-002,5.562729E-002,5.562729E-002,5.562729E-002,5.562729E-002,5.562729E-002,5.562729E-002,
   **   ~~~   ** Air System Named = CENTRAL SYSTEM did not converge for energy
   **   ~~~   ** Check values should be zero. Most Recent values listed first.
   **   ~~~   ** Demand-to-Supply interface energy check value iteration history trace: 1089.039194,1089.039194,1089.039193,1089.039193,1089.039193,1089.039193,1089.039193,1089.039193,1089.039193,1089.039193,
   **   ~~~   ** Supply-to-demand interface deck 1 energy check value iteration history trace: 1914.872390,1914.872389,1914.872389,1914.872389,1914.872389,1914.872389,1914.872389,1914.872389,1914.872389,1914.872389,
   ** Warning ** SimHVAC: Maximum iterations (20) exceeded for all HVAC loops, at ANNUAL, 01/13 12:04 - 12:08
   **   ~~~   ** The solution for one or more of the Air Loop HVAC systems did not appear to converge
   **   ~~~   ** Air System Named = CENTRAL SYSTEM did not converge for mass flow rate
   **   ~~~   ** Check values should be zero. Most Recent values listed first.
   **   ~~~   ** Demand-to-Supply interface mass flow rate check value iteration history trace: 5.243395E-002,5.243395E-002,5.243395E-002,5.243395E-002,5.243395E-002,5.243395E-002,5.243395E-002,5.243395E-002,5.243395E-002,5.243395E-002,
   **   ~~~   ** Supply-to-demand interface deck 1 mass flow rate check value iteration history trace: 5.243395E-002,5.243395E-002,5.243395E-002,5.243395E-002,5.243395E-002,5.243395E-002,5.243395E-002,5.243395E-002,5.243395E-002,5.243395E-002,
   **   ~~~   ** Air System Named = CENTRAL SYSTEM did not converge for energy
   **   ~~~   ** Check values should be zero. Most Recent values listed first.
   **   ~~~   ** Demand-to-Supply interface energy check value iteration history trace: 1039.163535,1039.163534,1039.163534,1039.163534,1039.163534,1039.163534,1039.163534,1039.163534,1039.163534,1039.163534,
   **   ~~~   ** Supply-to-demand interface deck 1 energy check value iteration history trace: 1750.390510,1750.390510,1750.390510,1750.390510,1750.390510,1750.390510,1750.390510,1750.390510,1750.390510,1750.390510,
   ** Warning ** SimHVAC: Maximum iterations (20) exceeded for all HVAC loops, at ANNUAL, 01/22 15:51 - 15:52
   **   ~~~   ** The solution for one or more of the Air Loop HVAC systems did not appear to converge
   **   ~~~   ** Air System Named = CENTRAL SYSTEM did not converge for mass flow rate
   **   ~~~   ** Check values should be zero. Most Recent values listed first.
   **   ~~~   ** Demand-to-Supply interface mass flow rate check value iteration history trace: 5.954857E-002,5.954857E-002,5.954857E-002,5.954857E-002,5.954857E-002,5.954857E-002,5.954857E-002,5.954857E-002,5.954857E-002,5.954857E-002,
   **   ~~~   ** Supply-to-demand interface deck 1 mass flow rate check value iteration history trace: 5.954857E-002,5.954857E-002,5.954857E-002,5.954857E-002,5.954857E-002,5.954857E-002,5.954857E-002,5.954857E-002,5.954857E-002,5.954857E-002,
   **   ~~~   ** Air System Named = CENTRAL SYSTEM did not converge for energy
   **   ~~~   ** Check values should be zero. Most Recent values listed first.
   **   ~~~   ** Demand-to-Supply interface energy check value iteration history trace: 1175.580330,1175.580330,1175.580330,1175.580330,1175.580330,1175.580330,1175.580330,1175.580330,1175.580330,1175.580330,
   **   ~~~   ** Supply-to-demand interface deck 1 energy check value iteration history trace: 1823.541498,1823.541498,1823.541498,1823.541498,1823.541497,1823.541497,1823.541497,1823.541497,1823.541497,1823.541497,
   ** Warning ** CalcDoe2DXCoil: Coil:Cooling:DX:SingleSpeed "DX_COOLING_COIL" - Full load outlet air dry-bulb temperature < 2C. This indicates the possibility of coil frost/freeze. Outlet temperature = 1.87 C.
   **   ~~~   **  ...Occurrence info = ANNUAL, 02/17 15:30 - 15:38
   **   ~~~   ** ... Possible reasons for low outlet air dry-bulb temperatures are: This DX coil
   **   ~~~   **    1) may have a low inlet air dry-bulb temperature. Inlet air temperature = 22.530 C.
   **   ~~~   **    2) may have a low air flow rate per watt of cooling capacity. Check inputs.
   **   ~~~   **    3) is used as part of a HX assisted cooling coil which uses a high sensible effectiveness. Check inputs.
   ** Warning ** SimHVAC: Maximum iterations (20) exceeded for all HVAC loops, at ANNUAL, 02/19 13:30 - 13:45
   **   ~~~   ** The solution for one or more of the Air Loop HVAC systems did not appear to converge
   **   ~~~   ** Air System Named = CENTRAL SYSTEM did not converge for mass flow rate
   **   ~~~   ** Check values should be zero. Most Recent values listed first.
   **   ~~~   ** Demand-to-Supply interface mass flow rate check value iteration history trace: 5.513782E-002,5.513782E-002,5.513782E-002,5.513782E-002,5.513782E-002,5.513782E-002,5.513782E-002,5.513782E-002,5.513782E-002,5.513782E-002,
   **   ~~~   ** Supply-to-demand interface deck 1 mass flow rate check value iteration history trace: 5.513782E-002,5.513782E-002,5.513782E-002,5.513782E-002,5.513782E-002,5.513782E-002,5.513782E-002,5.513782E-002,5.513782E-002,5.513782E-002,
   **   ~~~   ** Air System Named = CENTRAL SYSTEM did not converge for energy
   **   ~~~   ** Check values should be zero. Most Recent values listed first.
   **   ~~~   ** Demand-to-Supply interface energy check value iteration history trace: 1090.068226,1090.068226,1090.068226,1090.068226,1090.068226,1090.068226,1090.068226,1090.068226,1090.068226,1090.068226,
   **   ~~~   ** Supply-to-demand interface deck 1 energy check value iteration history trace: 1916.245530,1916.245530,1916.245530,1916.245530,1916.245529,1916.245529,1916.245529,1916.245529,1916.245529,1916.245529,
   ** Warning ** SimHVAC: Maximum iterations (20) exceeded for all HVAC loops, at ANNUAL, 02/24 12:19 - 12:22
   **   ~~~   ** The solution for one or more of the Air Loop HVAC systems did not appear to converge
   **   ~~~   ** Air System Named = CENTRAL SYSTEM did not converge for mass flow rate
   **   ~~~   ** Check values should be zero. Most Recent values listed first.
   **   ~~~   ** Demand-to-Supply interface mass flow rate check value iteration history trace: 4.949494E-002,4.949494E-002,4.949494E-002,4.949494E-002,4.949494E-002,4.949494E-002,4.949494E-002,4.949494E-002,4.949494E-002,4.949494E-002,
   **   ~~~   ** Supply-to-demand interface deck 1 mass flow rate check value iteration history trace: 4.949494E-002,4.949494E-002,4.949494E-002,4.949494E-002,4.949494E-002,4.949494E-002,4.949494E-002,4.949494E-002,4.949494E-002,4.949494E-002,
   **   ~~~   ** Air System Named = CENTRAL SYSTEM did not converge for energy
   **   ~~~   ** Check values should be zero. Most Recent values listed first.
   **   ~~~   ** Demand-to-Supply interface energy check value iteration history trace: 980.893520,980.893520,980.893520,980.893520,980.893520,980.893520,980.893520,980.893520,980.893520,980.893519,
   **   ~~~   ** Supply-to-demand interface deck 1 energy check value iteration history trace: 1650.537123,1650.537123,1650.537123,1650.537123,1650.537123,1650.537123,1650.537122,1650.537122,1650.537122,1650.537122,
   ** Warning ** SimHVAC: Maximum iterations (20) exceeded for all HVAC loops, at ANNUAL, 03/01 15:53 - 16:00
   **   ~~~   ** The solution for one or more of the Air Loop HVAC systems did not appear to converge
   **   ~~~   ** Air System Named = CENTRAL SYSTEM did not converge for mass flow rate
   **   ~~~   ** Check values should be zero. Most Recent values listed first.
   **   ~~~   ** Demand-to-Supply interface mass flow rate check value iteration history trace: 1.223851E-002,1.223851E-002,1.223851E-002,1.223851E-002,1.223851E-002,1.223851E-002,1.223851E-002,1.223851E-002,1.223851E-002,1.223851E-002,
   **   ~~~   ** Supply-to-demand interface deck 1 mass flow rate check value iteration history trace: 1.223851E-002,1.223851E-002,1.223851E-002,1.223851E-002,1.223851E-002,1.223851E-002,1.223851E-002,1.223851E-002,1.223851E-002,1.223851E-002,
   **   ~~~   ** Air System Named = CENTRAL SYSTEM did not converge for energy
   **   ~~~   ** Check values should be zero. Most Recent values listed first.
   **   ~~~   ** Demand-to-Supply interface energy check value iteration history trace: 240.272621,240.272621,240.272621,240.272621,240.272621,240.272621,240.272621,240.272621,240.272621,240.272621,
   **   ~~~   ** Supply-to-demand interface deck 1 energy check value iteration history trace: 454.828249,454.828249,454.828249,454.828249,454.828249,454.828249,454.828249,454.828249,454.828249,454.828249,
   ** Warning ** SimHVAC: Maximum iterations (20) exceeded for all HVAC loops, at ANNUAL, 03/04 11:30 - 11:35
   **   ~~~   ** The solution for one or more of the Air Loop HVAC systems did not appear to converge
   **   ~~~   ** Air System Named = CENTRAL SYSTEM did not converge for mass flow rate
   **   ~~~   ** Check values should be zero. Most Recent values listed first.
   **   ~~~   ** Demand-to-Supply interface mass flow rate check value iteration history trace: 5.833005E-002,5.833005E-002,5.833005E-002,5.833005E-002,5.833005E-002,5.833005E-002,5.833005E-002,5.833005E-002,5.833005E-002,5.833005E-002,
   **   ~~~   ** Supply-to-demand interface deck 1 mass flow rate check value iteration history trace: 5.833005E-002,5.833005E-002,5.833005E-002,5.833005E-002,5.833005E-002,5.833005E-002,5.833005E-002,5.833005E-002,5.833005E-002,5.833005E-002,
   **   ~~~   ** Air System Named = CENTRAL SYSTEM did not converge for energy
   **   ~~~   ** Check values should be zero. Most Recent values listed first.
   **   ~~~   ** Demand-to-Supply interface energy check value iteration history trace: 1155.928064,1155.928064,1155.928064,1155.928063,1155.928063,1155.928063,1155.928063,1155.928063,1155.928063,1155.928063,
   **   ~~~   ** Supply-to-demand interface deck 1 energy check value iteration history trace: 1990.051210,1990.051210,1990.051210,1990.051210,1990.051210,1990.051210,1990.051210,1990.051210,1990.051210,1990.051210,
   ** Warning ** SimHVAC: Maximum iterations (20) exceeded for all HVAC loops, at ANNUAL, 03/04 12:45 - 13:00
   **   ~~~   ** The solution for one or more of the Air Loop HVAC systems did not appear to converge
   **   ~~~   ** Air System Named = CENTRAL SYSTEM did not converge for mass flow rate
   **   ~~~   ** Check values should be zero. Most Recent values listed first.
   **   ~~~   ** Demand-to-Supply interface mass flow rate check value iteration history trace: 3.951638E-002,3.951638E-002,3.951638E-002,3.951638E-002,3.951638E-002,3.951638E-002,3.951638E-002,3.951638E-002,3.951638E-002,3.951638E-002,
   **   ~~~   ** Supply-to-demand interface deck 1 mass flow rate check value iteration history trace: 3.951638E-002,3.951638E-002,3.951638E-002,3.951638E-002,3.951638E-002,3.951638E-002,3.951638E-002,3.951638E-002,3.951638E-002,3.951638E-002,
   **   ~~~   ** Air System Named = CENTRAL SYSTEM did not converge for energy
   **   ~~~   ** Check values should be zero. Most Recent values listed first.
   **   ~~~   ** Demand-to-Supply interface energy check value iteration history trace: 773.003333,773.003333,773.003332,773.003332,773.003332,773.003332,773.003332,773.003332,773.003332,773.003332,
   **   ~~~   ** Supply-to-demand interface deck 1 energy check value iteration history trace: 1476.532411,1476.532411,1476.532411,1476.532411,1476.532411,1476.532411,1476.532411,1476.532410,1476.532410,1476.532410,
   ** Warning ** SimHVAC: Maximum iterations (20) exceeded for all HVAC loops, at ANNUAL, 03/10 10:58 - 11:00
   **   ~~~   ** The solution for one or more of the Air Loop HVAC systems did not appear to converge
   **   ~~~   ** Air System Named = CENTRAL SYSTEM did not converge for mass flow rate
   **   ~~~   ** Check values should be zero. Most Recent values listed first.
   **   ~~~   ** Demand-to-Supply interface mass flow rate check value iteration history trace: 4.592470E-002,4.592470E-002,4.592470E-002,4.592470E-002,4.592470E-002,4.592470E-002,4.592470E-002,4.592470E-002,4.592470E-002,4.592470E-002,
   **   ~~~   ** Supply-to-demand interface deck 1 mass flow rate check value iteration history trace: 4.592470E-002,4.592470E-002,4.592470E-002,4.592470E-002,4.592470E-002,4.592470E-002,4.592470E-002,4.592470E-002,4.592470E-002,4.592470E-002,
   **   ~~~   ** Air System Named = CENTRAL SYSTEM did not converge for energy
   **   ~~~   ** Check values should be zero. Most Recent values listed first.
   **   ~~~   ** Demand-to-Supply interface energy check value iteration history trace: 907.109602,907.109602,907.109602,907.109602,907.109602,907.109602,907.109602,907.109602,907.109602,907.109602,
   **   ~~~   ** Supply-to-demand interface deck 1 energy check value iteration history trace: 1756.880667,1756.880667,1756.880667,1756.880667,1756.880667,1756.880667,1756.880667,1756.880667,1756.880667,1756.880667,
   ** Warning ** SimHVAC: Maximum iterations (20) exceeded for all HVAC loops, at ANNUAL, 03/15 17:53 - 18:00
   **   ~~~   ** The solution for one or more of the Air Loop HVAC systems did not appear to converge
   **   ~~~   ** Air System Named = CENTRAL SYSTEM did not converge for mass flow rate
   **   ~~~   ** Check values should be zero. Most Recent values listed first.
   **   ~~~   ** Demand-to-Supply interface mass flow rate check value iteration history trace: 6.022442E-002,6.022442E-002,6.022442E-002,6.022442E-002,6.022442E-002,6.022442E-002,6.022442E-002,6.022442E-002,6.022442E-002,6.022442E-002,
   **   ~~~   ** Supply-to-demand interface deck 1 mass flow rate check value iteration history trace: 6.022442E-002,6.022442E-002,6.022442E-002,6.022442E-002,6.022442E-002,6.022442E-002,6.022442E-002,6.022442E-002,6.022442E-002,6.022442E-002,
   **   ~~~   ** Air System Named = CENTRAL SYSTEM did not converge for energy
   **   ~~~   ** Check values should be zero. Most Recent values listed first.
   **   ~~~   ** Demand-to-Supply interface energy check value iteration history trace: 1193.055751,1193.055751,1193.055751,1193.055751,1193.055751,1193.055751,1193.055751,1193.055751,1193.055751,1193.055751,
   **   ~~~   ** Supply-to-demand interface deck 1 energy check value iteration history trace: 2084.644788,2084.644788,2084.644788,2084.644788,2084.644787,2084.644787,2084.644787,2084.644787,2084.644787,2084.644787,
   ** Warning ** SimHVAC: Maximum iterations (20) exceeded for all HVAC loops, at ANNUAL, 03/19 10:00 - 10:15
   **   ~~~   ** The solution for one or more of the Air Loop HVAC systems did not appear to converge
   **   ~~~   ** Air System Named = CENTRAL SYSTEM did not converge for mass flow rate
   **   ~~~   ** Check values should be zero. Most Recent values listed first.
   **   ~~~   ** Demand-to-Supply interface mass flow rate check value iteration history trace: 7.664942E-002,7.664942E-002,7.664942E-002,7.664942E-002,7.664942E-002,7.664942E-002,7.664942E-002,7.664942E-002,7.664942E-002,7.664942E-002,
   **   ~~~   ** Supply-to-demand interface deck 1 mass flow rate check value iteration history trace: 7.664942E-002,7.664942E-002,7.664942E-002,7.664942E-002,7.664942E-002,7.664942E-002,7.664942E-002,7.664942E-002,7.664942E-002,7.664942E-002,
   **   ~~~   ** Air System Named = CENTRAL SYSTEM did not converge for energy
   **   ~~~   ** Check values should be zero. Most Recent values listed first.
   **   ~~~   ** Demand-to-Supply interface energy check value iteration history trace: 1518.975330,1518.975330,1518.975330,1518.975329,1518.975329,1518.975329,1518.975329,1518.975329,1518.975329,1518.975329,
   **   ~~~   ** Supply-to-demand interface deck 1 energy check value iteration history trace: 2588.287955,2588.287955,2588.287955,2588.287955,2588.287955,2588.287955,2588.287955,2588.287955,2588.287954,2588.287954,
   ** Warning ** SimHVAC: Maximum iterations (20) exceeded for all HVAC loops, at ANNUAL, 03/20 10:17 - 10:19
   **   ~~~   ** The solution for one or more of the Air Loop HVAC systems did not appear to converge
   **   ~~~   ** Air System Named = CENTRAL SYSTEM did not converge for mass flow rate
   **   ~~~   ** Check values should be zero. Most Recent values listed first.
   **   ~~~   ** Demand-to-Supply interface mass flow rate check value iteration history trace: 5.005642E-002,5.005642E-002,5.005642E-002,5.005642E-002,5.005642E-002,5.005642E-002,5.005642E-002,5.005642E-002,5.005642E-002,5.005642E-002,
   **   ~~~   ** Supply-to-demand interface deck 1 mass flow rate check value iteration history trace: 5.005642E-002,5.005642E-002,5.005642E-002,5.005642E-002,5.005642E-002,5.005642E-002,5.005642E-002,5.005642E-002,5.005642E-002,5.005642E-002,
   **   ~~~   ** Air System Named = CENTRAL SYSTEM did not converge for energy
   **   ~~~   ** Check values should be zero. Most Recent values listed first.
   **   ~~~   ** Demand-to-Supply interface energy check value iteration history trace: 988.337584,988.337584,988.337584,988.337584,988.337584,988.337584,988.337584,988.337584,988.337584,988.337584,
   **   ~~~   ** Supply-to-demand interface deck 1 energy check value iteration history trace: 1863.326743,1863.326743,1863.326743,1863.326743,1863.326743,1863.326743,1863.326743,1863.326743,1863.326743,1863.326743,
   ** Warning ** Temperature out of range [-100. to 200.] (PsyPsatFnTemp)
   **   ~~~   **  Routine=PsyTwbFnTdbWPb, Environment=ANNUAL, at Simulation time=04/08 16:26 - 16:28
   **   ~~~   **  Input Temperature=-177.43
   ** Warning ** CalcDoe2DXCoil: Coil:Cooling:DX:SingleSpeed "DX_COOLING_COIL" - Air-cooled condenser inlet dry-bulb temperature below 0 C. Outdoor dry-bulb temperature = -2.50E-002
   **   ~~~   **  ... Occurrence info = ANNUAL, 10/18 19:30 - 19:34
   **   ~~~   ** ... Operation at low ambient temperatures may require special performance curves.
   ************* Simulation Error Summary *************
   ** Warning ** The following Report Variables were requested but not generated -- check.rdd file
   **   ~~~   ** Either the IDF did not contain these elements, the variable name is misspelled,
   **   ~~~   ** or the requested variable is an advanced output which requires Output : Diagnostics, DisplayAdvancedReportVariables;
   ************* Key=*, VarName=BASEBOARD TOTAL HEATING ENERGY, Frequency=
   ************* Key=*, VarName=WATER HEATER NATURALGAS ENERGY, Frequency=
   ************* Key=*, VarName=COOLING COIL TOTAL HEATING ENERGY, Frequency=
   ************* There are 34 unused schedules in input.
   ************* There are 388 unused week schedules in input.
   ************* There are 396 unused day schedules in input.
   ************* Use Output:Diagnostics,DisplayUnusedSchedules; to see them.
   *************
   ************* ===== Recurring Error Summary =====
   ************* The following recurring error messages occurred.
   *************
   *************  ** Warning ** "TOTAL HOT WATER LOAD" - Target water temperature should be less than or equal to the hot water temperature error continues...
   *************  **   ~~~   **   This error occurred 177967 total times;
   *************  **   ~~~   **   during Warmup 0 times;
   *************  **   ~~~   **   during Sizing 0 times.
   *************  **   ~~~   **   Max=16.629141  Min=9.170572E-004
   *************
   *************  ** Warning ** CalcDoe2DXCoil: Coil:Cooling:DX:SingleSpeed="DX_COOLING_COIL" - Full load outlet temperature indicates a possibility of frost/freeze error continues. Outlet air temperature statistics follow:
   *************  **   ~~~   **   This error occurred 1 total times;
   *************  **   ~~~   **   during Warmup 0 times;
   *************  **   ~~~   **   during Sizing 0 times.
   *************  **   ~~~   **   Max=1.873595  Min=1.873595
   *************
   *************  ** Warning ** SimHVAC: Exceeding Maximum iterations for all HVAC loops, during ANNUAL continues
   *************  **   ~~~   **   This error occurred 38 total times;
   *************  **   ~~~   **   during Warmup 0 times;
   *************  **   ~~~   **   during Sizing 0 times.
   *************
   *************  ** Warning ** Temperature out of range [-100. to 200.] (PsyPsatFnTemp)
   *************  **   ~~~   **   This error occurred 18 total times;
   *************  **   ~~~   **   during Warmup 0 times;
   *************  **   ~~~   **   during Sizing 0 times.
   *************  **   ~~~   **   Max=-177.434029 C  Min=-1776.868958 C
   *************
   *************  ** Warning ** CalcDoe2DXCoil: Coil:Cooling:DX:SingleSpeed="DX_COOLING_COIL" - Low condenser dry-bulb temperature error continues...
   *************  **   ~~~   **   This error occurred 45 total times;
   *************  **   ~~~   **   during Warmup 0 times;
   *************  **   ~~~   **   during Sizing 0 times.
   *************  **   ~~~   **   Max=-2.500000E-002 [C]  Min=-1.65 [C]
   *************
   *************
   ************* ===== Final Error Summary =====
   ************* The following error categories occurred.  Consider correcting or noting.
   ************* Loads Initialization did not Converge
   ************* ..1) very high thermal mass such as very thick concrete (solution: increase max number of warmup
   ************* ..   days in the BUILDING object);
   ************* ..2) moderate mass and inadequate space conditioning such that the building keeps getting warmer
   ************* ..   and warmer on successive days (solution: add HVAC, check building thermal properties,
   ************* ..   check if infiltration is included, make sure HVAC properly controlled);
   ************* ..3) a soil layer modeled below the concrete slab - (solution remove this layer and read about
   ************* ..   ground temperatures in the Auxiliary Programs document).
   ************* ..4) unreasonable (too small) limits in the BUILDING object for temperature (.4 default) or
   ************* ..   loads tolerances (.04 default)
   ************* Nominally Unused Constructions
   ************* ..The nominally unused constructions warning is provided to alert you to potential conditions that can cause
   ************* ..extra time during simulation. Each construction is calculated by the algorithm indicated in the HeatBalanceAlgorithm
   ************* ..object. You may remove the constructions indicated (when you use the DisplayExtraWarnings option).
   *************
   ************* EnergyPlus Warmup Error Summary. During Warmup: 1 Warning; 2 Severe Errors.
   ************* EnergyPlus Sizing Error Summary. During Sizing: 4 Warning; 0 Severe Errors.
   ************* EnergyPlus Completed Successfully-- 178101 Warning; 2 Severe Errors; Elapsed Time=00hr 01min 58.73sec
