Program Version,EnergyPlus, Version 22.2.0-c249759bad, YMD=2023.09.01 18:56,
   ************* Beginning Zone Sizing Calculations
   ** Warning ** ProcessScheduleInput: Schedule:Constant="ALWAYS ON DISCRETE", Schedule Type Limits Name="ONOFF" not found -- will not be validated
   ** Warning ** Foundation:Kiva="KIVA FOUNDATION", no Interior Horizontal Insulation Material Name defined
   **   ~~~   ** Interior Horizontal Insulation Depth will not be used.
   ** Warning ** CheckUsedConstructions: There are 15 nominally unused constructions in input.
   **   ~~~   ** Each Unused construction is shown.
   ************* Construction=INTERIOR FLOOR
   ************* Construction=INTERIOR WINDOW
   ************* Construction=EXTERIOR DOOR
   ************* Construction=INTERIOR DOOR
   ************* Construction=GABLE CONSTRUCTION
   ************* Construction=CRAWL_FLOOR
   ************* Construction=INSULATED PIPE
   ************* Construction=PLAIN PIPE
   ************* Construction=TDD PIPE
   ************* Construction=TDD DOME
   ************* Construction=TDD DIFFUSER
   ************* Construction=CRAWL WALL
   ************* Construction=CEILING-FLOOR-LAYER
   ************* Construction=SLAB CONSTRUCTION W FULL R10 INSULATION
   ************* Construction=SLAB CONSTRUCTION W FULL R5 INSULATION
   ** Warning ** GetDXCoils: Coil:Heating:DX:SingleSpeed="DX_HEATING_COIL" curve values
   **   ~~~   ** ... Defrost Energy Input Ratio Function of Temperature Curve Name = DEFROSTEIR output is not equal to 1.0 (+ or - 10%) at rated conditions.
   **   ~~~   ** ... Curve output at rated conditions = 0.152
   ************* Beginning System Sizing Calculations
   ************* Beginning Plant Sizing Calculations
   ** Warning ** Coil:WaterHeating:AirToWaterHeatPump:Wrapped "HEAT PUMP WATER HEATER EVAPORATOR": Rated air volume flow rate per watt of rated total water heating capacity is out of range
   **   ~~~   ** Min Rated Vol Flow Per Watt=[4.027E-005], Rated Vol Flow Per Watt=[1.510E-004], Max Rated Vol Flow Per Watt=[8.056E-005]. See Input-Output Reference Manual for valid range.
   ************* SizeFan: : Potential issue with equipment sizing for Fan:OnOff HEAT PUMP WATER HEATER FAN
   **   ~~~   ** User-Specified Maximum Flow Rate [m3/s] = 0.22653
   **   ~~~   ** differs from Design Size Maximum Flow Rate [m3/s] = 7.55250E-002
   **   ~~~   ** This may, or may not, indicate mismatched component sizes.
   **   ~~~   ** Verify that the value entered is intended and is consistent with other components.
   ** Warning ** Water heater = WATER HEATER TANK:  Recovery Efficiency and Energy Factor could not be calculated during the test for standard ratings
   **   ~~~   ** Setpoint was never recovered and/or heater never turned on
   ** Warning ** Check input. Pump nominal power or motor efficiency is set to 0, for pump=MAINS PRESSURE
   ** Warning ** Output:Meter: invalid Key Name="ELECTRIC_RANGE:INTERIOREQUIPMENT:ELECTRICITY" - not found.
   ** Warning ** Output:Meter: invalid Key Name="ELECTRIC_DRYER:INTERIOREQUIPMENT:ELECTRICITY" - not found.
   ** Warning ** Output:Meter: invalid Key Name="HEATRECOVERY:ELECTRICITY" - not found.
   ** Warning ** Output:Meter: invalid Key Name="HEATING:NATURALGAS" - not found.
   ** Warning ** Output:Meter: invalid Key Name="WATERSYSTEMS:NATURALGAS" - not found.
   ** Warning ** Output:Meter: invalid Key Name="PROPANE:FACILITY" - not found.
   ** Warning ** Output:Meter: invalid Key Name="HEATING:PROPANE" - not found.
   ************* Testing Individual Branch Integrity
   ************* All Branches passed integrity testing
   ************* Testing Individual Supply Air Path Integrity
   ************* All Supply Air Paths passed integrity testing
   ************* Testing Individual Return Air Path Integrity
   ************* All Return Air Paths passed integrity testing
   ************* No node connection errors were found.
   ************* Beginning Simulation
   ** Warning ** AirflowNetwork::Solver::validate_distribution: Heat pump water heater is simulated along with an AirflowNetwork but is not included in the AirflowNetwork.
   ** Warning ** CalcEquipmentFlowRates: "TOTAL HOT WATER LOAD" - Target water temperature is greater than the hot water temperature by (5.65E-002 C)
   **   ~~~   **  Environment=EXTREME_WINTER, at Simulation time=12/22 03:45 - 04:00
   **   ~~~   ** ...target water temperature     = 53.33 C
   **   ~~~   ** ...hot water temperature        = 53.28 C
   **   ~~~   ** ...Target water temperature should be less than or equal to the hot water temperature. Verify temperature setpoints and schedules.
   ** Warning ** SimHVAC: Maximum iterations (20) exceeded for all HVAC loops, at ANNUAL, 01/14 11:30 - 11:38
   **   ~~~   ** The solution for one or more of the Air Loop HVAC systems did not appear to converge
   **   ~~~   ** Air System Named = CENTRAL SYSTEM did not converge for mass flow rate
   **   ~~~   ** Check values should be zero. Most Recent values listed first.
   **   ~~~   ** Demand-to-Supply interface mass flow rate check value iteration history trace: 6.032604E-002,6.032604E-002,6.032604E-002,6.032604E-002,6.032604E-002,6.032604E-002,6.032604E-002,6.032604E-002,6.032604E-002,6.032604E-002,
   **   ~~~   ** Supply-to-demand interface deck 1 mass flow rate check value iteration history trace: 6.032604E-002,6.032604E-002,6.032604E-002,6.032604E-002,6.032604E-002,6.032604E-002,6.032604E-002,6.032604E-002,6.032604E-002,6.032604E-002,
   **   ~~~   ** Air System Named = CENTRAL SYSTEM did not converge for energy
   **   ~~~   ** Check values should be zero. Most Recent values listed first.
   **   ~~~   ** Demand-to-Supply interface energy check value iteration history trace: 1192.029137,1192.029137,1192.029137,1192.029137,1192.029137,1192.029137,1192.029137,1192.029137,1192.029137,1192.029137,
   **   ~~~   ** Supply-to-demand interface deck 1 energy check value iteration history trace: 2113.263471,2113.263471,2113.263471,2113.263471,2113.263470,2113.263470,2113.263470,2113.263470,2113.263470,2113.263470,
   ** Warning ** SimHVAC: Maximum iterations (20) exceeded for all HVAC loops, at ANNUAL, 02/04 16:00 - 16:15
   **   ~~~   ** The solution for one or more of the Air Loop HVAC systems did not appear to converge
   **   ~~~   ** Air System Named = CENTRAL SYSTEM did not converge for mass flow rate
   **   ~~~   ** Check values should be zero. Most Recent values listed first.
   **   ~~~   ** Demand-to-Supply interface mass flow rate check value iteration history trace: 6.763865E-002,6.763865E-002,6.763865E-002,6.763865E-002,6.763865E-002,6.763865E-002,6.763865E-002,6.763865E-002,6.763865E-002,6.763865E-002,
   **   ~~~   ** Supply-to-demand interface deck 1 mass flow rate check value iteration history trace: 6.763865E-002,6.763865E-002,6.763865E-002,6.763865E-002,6.763865E-002,6.763865E-002,6.763865E-002,6.763865E-002,6.763865E-002,6.763865E-002,
   **   ~~~   ** Air System Named = CENTRAL SYSTEM did not converge for energy
   **   ~~~   ** Check values should be zero. Most Recent values listed first.
   **   ~~~   ** Demand-to-Supply interface energy check value iteration history trace: 1340.374181,1340.374181,1340.374181,1340.374180,1340.374180,1340.374180,1340.374180,1340.374180,1340.374180,1340.374180,
   **   ~~~   ** Supply-to-demand interface deck 1 energy check value iteration history trace: 2033.717811,2033.717811,2033.717811,2033.717811,2033.717811,2033.717810,2033.717810,2033.717810,2033.717810,2033.717810,
   ** Warning ** SimHVAC: Maximum iterations (20) exceeded for all HVAC loops, at ANNUAL, 02/04 16:03 - 16:06
   **   ~~~   ** The solution for one or more of the Air Loop HVAC systems did not appear to converge
   **   ~~~   ** Air System Named = CENTRAL SYSTEM did not converge for mass flow rate
   **   ~~~   ** Check values should be zero. Most Recent values listed first.
   **   ~~~   ** Demand-to-Supply interface mass flow rate check value iteration history trace: 6.834357E-002,6.834357E-002,6.834357E-002,6.834357E-002,6.834357E-002,6.834357E-002,6.834357E-002,6.834357E-002,6.834357E-002,6.834357E-002,
   **   ~~~   ** Supply-to-demand interface deck 1 mass flow rate check value iteration history trace: 6.834357E-002,6.834357E-002,6.834357E-002,6.834357E-002,6.834357E-002,6.834357E-002,6.834357E-002,6.834357E-002,6.834357E-002,6.834357E-002,
   **   ~~~   ** Air System Named = CENTRAL SYSTEM did not converge for energy
   **   ~~~   ** Check values should be zero. Most Recent values listed first.
   **   ~~~   ** Demand-to-Supply interface energy check value iteration history trace: 1354.377364,1354.377364,1354.377364,1354.377364,1354.377364,1354.377364,1354.377363,1354.377363,1354.377363,1354.377363,
   **   ~~~   ** Supply-to-demand interface deck 1 energy check value iteration history trace: 2054.938676,2054.938676,2054.938676,2054.938676,2054.938676,2054.938676,2054.938676,2054.938675,2054.938675,2054.938675,
   ** Warning ** SimHVAC: Maximum iterations (20) exceeded for all HVAC loops, at ANNUAL, 02/19 14:00 - 14:15
   **   ~~~   ** The solution for one or more of the Air Loop HVAC systems did not appear to converge
   **   ~~~   ** Air System Named = CENTRAL SYSTEM did not converge for mass flow rate
   **   ~~~   ** Check values should be zero. Most Recent values listed first.
   **   ~~~   ** Demand-to-Supply interface mass flow rate check value iteration history trace: 8.175842E-002,8.175842E-002,8.175842E-002,8.175842E-002,8.175842E-002,8.175842E-002,8.175842E-002,8.175842E-002,8.175842E-002,8.175842E-002,
   **   ~~~   ** Supply-to-demand interface deck 1 mass flow rate check value iteration history trace: 8.175842E-002,8.175842E-002,8.175842E-002,8.175842E-002,8.175842E-002,8.175842E-002,8.175842E-002,8.175842E-002,8.175842E-002,8.175842E-002,
   **   ~~~   ** Air System Named = CENTRAL SYSTEM did not converge for energy
   **   ~~~   ** Check values should be zero. Most Recent values listed first.
   **   ~~~   ** Demand-to-Supply interface energy check value iteration history trace: 1618.544883,1618.544883,1618.544883,1618.544883,1618.544883,1618.544883,1618.544883,1618.544883,1618.544882,1618.544882,
   **   ~~~   ** Supply-to-demand interface deck 1 energy check value iteration history trace: 2457.444526,2457.444526,2457.444526,2457.444526,2457.444526,2457.444526,2457.444525,2457.444525,2457.444525,2457.444525,
   ** Warning ** SimHVAC: Maximum iterations (20) exceeded for all HVAC loops, at ANNUAL, 03/17 08:20 - 08:22
   **   ~~~   ** The solution for one or more of the Air Loop HVAC systems did not appear to converge
   **   ~~~   ** Air System Named = CENTRAL SYSTEM did not converge for mass flow rate
   **   ~~~   ** Check values should be zero. Most Recent values listed first.
   **   ~~~   ** Demand-to-Supply interface mass flow rate check value iteration history trace: 5.546039E-002,5.546039E-002,5.546039E-002,5.546039E-002,5.546039E-002,5.546039E-002,5.546039E-002,5.546039E-002,5.546039E-002,5.546039E-002,
   **   ~~~   ** Supply-to-demand interface deck 1 mass flow rate check value iteration history trace: 5.546039E-002,5.546039E-002,5.546039E-002,5.546039E-002,5.546039E-002,5.546039E-002,5.546039E-002,5.546039E-002,5.546039E-002,5.546039E-002,
   **   ~~~   ** Air System Named = CENTRAL SYSTEM did not converge for energy
   **   ~~~   ** Check values should be zero. Most Recent values listed first.
   **   ~~~   ** Demand-to-Supply interface energy check value iteration history trace: 1098.292864,1098.292864,1098.292864,1098.292864,1098.292864,1098.292863,1098.292863,1098.292863,1098.292863,1098.292863,
   **   ~~~   ** Supply-to-demand interface deck 1 energy check value iteration history trace: 2017.516293,2017.516293,2017.516293,2017.516293,2017.516293,2017.516293,2017.516293,2017.516293,2017.516293,2017.516292,
   ** Warning ** SimHVAC: Maximum iterations (20) exceeded for all HVAC loops, at ANNUAL, 04/06 11:45 - 12:00
   **   ~~~   ** The solution for one or more of the Air Loop HVAC systems did not appear to converge
   **   ~~~   ** Air System Named = CENTRAL SYSTEM did not converge for mass flow rate
   **   ~~~   ** Check values should be zero. Most Recent values listed first.
   **   ~~~   ** Demand-to-Supply interface mass flow rate check value iteration history trace: 4.980066E-002,4.980066E-002,4.980066E-002,4.980066E-002,4.980066E-002,4.980066E-002,4.980066E-002,4.980066E-002,4.980066E-002,4.980066E-002,
   **   ~~~   ** Supply-to-demand interface deck 1 mass flow rate check value iteration history trace: 4.980066E-002,4.980066E-002,4.980066E-002,4.980066E-002,4.980066E-002,4.980066E-002,4.980066E-002,4.980066E-002,4.980066E-002,4.980066E-002,
   **   ~~~   ** Air System Named = CENTRAL SYSTEM did not converge for energy
   **   ~~~   ** Check values should be zero. Most Recent values listed first.
   **   ~~~   ** Demand-to-Supply interface energy check value iteration history trace: 986.909982,986.909982,986.909982,986.909982,986.909982,986.909982,986.909982,986.909981,986.909981,986.909981,
   **   ~~~   ** Supply-to-demand interface deck 1 energy check value iteration history trace: 1789.610643,1789.610643,1789.610643,1789.610643,1789.610643,1789.610643,1789.610643,1789.610643,1789.610643,1789.610643,
   ** Warning ** SimHVAC: Maximum iterations (20) exceeded for all HVAC loops, at ANNUAL, 04/11 07:33 - 07:36
   **   ~~~   ** The solution for one or more of the Air Loop HVAC systems did not appear to converge
   **   ~~~   ** Air System Named = CENTRAL SYSTEM did not converge for mass flow rate
   **   ~~~   ** Check values should be zero. Most Recent values listed first.
   **   ~~~   ** Demand-to-Supply interface mass flow rate check value iteration history trace: 6.321389E-002,6.321389E-002,6.321389E-002,6.321389E-002,6.321389E-002,6.321389E-002,6.321389E-002,6.321389E-002,6.321389E-002,6.321389E-002,
   **   ~~~   ** Supply-to-demand interface deck 1 mass flow rate check value iteration history trace: 6.321389E-002,6.321389E-002,6.321389E-002,6.321389E-002,6.321389E-002,6.321389E-002,6.321389E-002,6.321389E-002,6.321389E-002,6.321389E-002,
   **   ~~~   ** Air System Named = CENTRAL SYSTEM did not converge for energy
   **   ~~~   ** Check values should be zero. Most Recent values listed first.
   **   ~~~   ** Demand-to-Supply interface energy check value iteration history trace: 1252.699266,1252.699266,1252.699266,1252.699266,1252.699266,1252.699266,1252.699266,1252.699266,1252.699266,1252.699266,
   **   ~~~   ** Supply-to-demand interface deck 1 energy check value iteration history trace: 2227.578915,2227.578915,2227.578915,2227.578915,2227.578915,2227.578915,2227.578915,2227.578915,2227.578914,2227.578914,
   ** Warning ** SimHVAC: Maximum iterations (20) exceeded for all HVAC loops, at ANNUAL, 04/14 08:15 - 08:17
   **   ~~~   ** The solution for one or more of the Air Loop HVAC systems did not appear to converge
   **   ~~~   ** Air System Named = CENTRAL SYSTEM did not converge for mass flow rate
   **   ~~~   ** Check values should be zero. Most Recent values listed first.
   **   ~~~   ** Demand-to-Supply interface mass flow rate check value iteration history trace: 6.247395E-002,6.247395E-002,6.247395E-002,6.247395E-002,6.247395E-002,6.247395E-002,6.247395E-002,6.247395E-002,6.247395E-002,6.247395E-002,
   **   ~~~   ** Supply-to-demand interface deck 1 mass flow rate check value iteration history trace: 6.247395E-002,6.247395E-002,6.247395E-002,6.247395E-002,6.247395E-002,6.247395E-002,6.247395E-002,6.247395E-002,6.247395E-002,6.247395E-002,
   **   ~~~   ** Air System Named = CENTRAL SYSTEM did not converge for energy
   **   ~~~   ** Check values should be zero. Most Recent values listed first.
   **   ~~~   ** Demand-to-Supply interface energy check value iteration history trace: 1238.091327,1238.091327,1238.091327,1238.091327,1238.091327,1238.091327,1238.091327,1238.091327,1238.091327,1238.091327,
   **   ~~~   ** Supply-to-demand interface deck 1 energy check value iteration history trace: 2210.332973,2210.332973,2210.332973,2210.332973,2210.332973,2210.332973,2210.332973,2210.332973,2210.332973,2210.332972,
   ** Warning ** SimHVAC: Maximum iterations (20) exceeded for all HVAC loops, at ANNUAL, 05/14 07:53 - 07:56
   **   ~~~   ** The solution for one or more of the Air Loop HVAC systems did not appear to converge
   **   ~~~   ** Air System Named = CENTRAL SYSTEM did not converge for mass flow rate
   **   ~~~   ** Check values should be zero. Most Recent values listed first.
   **   ~~~   ** Demand-to-Supply interface mass flow rate check value iteration history trace: 5.464428E-002,5.464428E-002,5.464428E-002,5.464428E-002,5.464428E-002,5.464428E-002,5.464428E-002,5.464428E-002,5.464428E-002,5.464428E-002,
   **   ~~~   ** Supply-to-demand interface deck 1 mass flow rate check value iteration history trace: 5.464428E-002,5.464428E-002,5.464428E-002,5.464428E-002,5.464428E-002,5.464428E-002,5.464428E-002,5.464428E-002,5.464428E-002,5.464428E-002,
   **   ~~~   ** Air System Named = CENTRAL SYSTEM did not converge for energy
   **   ~~~   ** Check values should be zero. Most Recent values listed first.
   **   ~~~   ** Demand-to-Supply interface energy check value iteration history trace: 1082.888420,1082.888420,1082.888420,1082.888420,1082.888420,1082.888420,1082.888419,1082.888419,1082.888419,1082.888419,
   **   ~~~   ** Supply-to-demand interface deck 1 energy check value iteration history trace: 1910.667501,1910.667501,1910.667500,1910.667500,1910.667500,1910.667500,1910.667500,1910.667500,1910.667500,1910.667500,
   ** Warning ** SimHVAC: Maximum iterations (20) exceeded for all HVAC loops, at ANNUAL, 05/15 05:15 - 05:30
   **   ~~~   ** The solution for one or more of the Air Loop HVAC systems did not appear to converge
   **   ~~~   ** Air System Named = CENTRAL SYSTEM did not converge for mass flow rate
   **   ~~~   ** Check values should be zero. Most Recent values listed first.
   **   ~~~   ** Demand-to-Supply interface mass flow rate check value iteration history trace: 4.960094E-002,4.960094E-002,4.960094E-002,4.960094E-002,4.960094E-002,4.960094E-002,4.960094E-002,4.960094E-002,4.960094E-002,4.960094E-002,
   **   ~~~   ** Supply-to-demand interface deck 1 mass flow rate check value iteration history trace: 4.960094E-002,4.960094E-002,4.960094E-002,4.960094E-002,4.960094E-002,4.960094E-002,4.960094E-002,4.960094E-002,4.960094E-002,4.960094E-002,
   **   ~~~   ** Air System Named = CENTRAL SYSTEM did not converge for energy
   **   ~~~   ** Check values should be zero. Most Recent values listed first.
   **   ~~~   ** Demand-to-Supply interface energy check value iteration history trace: 982.579725,982.579725,982.579725,982.579725,982.579725,982.579725,982.579725,982.579725,982.579725,982.579725,
   **   ~~~   ** Supply-to-demand interface deck 1 energy check value iteration history trace: 1682.145726,1682.145726,1682.145726,1682.145726,1682.145726,1682.145726,1682.145726,1682.145726,1682.145726,1682.145726,
   ** Warning ** SimHVAC: Maximum iterations (20) exceeded for all HVAC loops, at ANNUAL, 05/15 06:30 - 06:45
   **   ~~~   ** The solution for one or more of the Air Loop HVAC systems did not appear to converge
   **   ~~~   ** Air System Named = CENTRAL SYSTEM did not converge for mass flow rate
   **   ~~~   ** Check values should be zero. Most Recent values listed first.
   **   ~~~   ** Demand-to-Supply interface mass flow rate check value iteration history trace: 7.318443E-002,7.318443E-002,7.318443E-002,7.318443E-002,7.318443E-002,7.318443E-002,7.318443E-002,7.318443E-002,7.318443E-002,7.318443E-002,
   **   ~~~   ** Supply-to-demand interface deck 1 mass flow rate check value iteration history trace: 7.318443E-002,7.318443E-002,7.318443E-002,7.318443E-002,7.318443E-002,7.318443E-002,7.318443E-002,7.318443E-002,7.318443E-002,7.318443E-002,
   **   ~~~   ** Air System Named = CENTRAL SYSTEM did not converge for energy
   **   ~~~   ** Check values should be zero. Most Recent values listed first.
   **   ~~~   ** Demand-to-Supply interface energy check value iteration history trace: 1450.130157,1450.130157,1450.130156,1450.130156,1450.130156,1450.130156,1450.130156,1450.130156,1450.130156,1450.130156,
   **   ~~~   ** Supply-to-demand interface deck 1 energy check value iteration history trace: 2509.991476,2509.991476,2509.991475,2509.991475,2509.991475,2509.991475,2509.991475,2509.991475,2509.991475,2509.991475,
   ** Warning ** SimHVAC: Maximum iterations (20) exceeded for all HVAC loops, at ANNUAL, 10/20 08:15 - 08:30
   **   ~~~   ** The solution for one or more of the Air Loop HVAC systems did not appear to converge
   **   ~~~   ** Air System Named = CENTRAL SYSTEM did not converge for mass flow rate
   **   ~~~   ** Check values should be zero. Most Recent values listed first.
   **   ~~~   ** Demand-to-Supply interface mass flow rate check value iteration history trace: 5.423300E-002,5.423300E-002,5.423300E-002,5.423300E-002,5.423300E-002,5.423300E-002,5.423300E-002,5.423300E-002,5.423300E-002,5.423300E-002,
   **   ~~~   ** Supply-to-demand interface deck 1 mass flow rate check value iteration history trace: 5.423300E-002,5.423300E-002,5.423300E-002,5.423300E-002,5.423300E-002,5.423300E-002,5.423300E-002,5.423300E-002,5.423300E-002,5.423300E-002,
   **   ~~~   ** Air System Named = CENTRAL SYSTEM did not converge for energy
   **   ~~~   ** Check values should be zero. Most Recent values listed first.
   **   ~~~   ** Demand-to-Supply interface energy check value iteration history trace: 1073.960129,1073.960129,1073.960129,1073.960129,1073.960129,1073.960129,1073.960129,1073.960129,1073.960129,1073.960129,
   **   ~~~   ** Supply-to-demand interface deck 1 energy check value iteration history trace: 1955.075226,1955.075226,1955.075226,1955.075226,1955.075226,1955.075226,1955.075226,1955.075225,1955.075225,1955.075225,
   ** Warning ** SimHVAC: Maximum iterations (20) exceeded for all HVAC loops, at ANNUAL, 10/24 15:30 - 15:45
   **   ~~~   ** The solution for one or more of the Air Loop HVAC systems did not appear to converge
   **   ~~~   ** Air System Named = CENTRAL SYSTEM did not converge for mass flow rate
   **   ~~~   ** Check values should be zero. Most Recent values listed first.
   **   ~~~   ** Demand-to-Supply interface mass flow rate check value iteration history trace: 5.785674E-002,5.785674E-002,5.785674E-002,5.785674E-002,5.785674E-002,5.785674E-002,5.785674E-002,5.785674E-002,5.785674E-002,5.785674E-002,
   **   ~~~   ** Supply-to-demand interface deck 1 mass flow rate check value iteration history trace: 5.785674E-002,5.785674E-002,5.785674E-002,5.785674E-002,5.785674E-002,5.785674E-002,5.785674E-002,5.785674E-002,5.785674E-002,5.785674E-002,
   **   ~~~   ** Air System Named = CENTRAL SYSTEM did not converge for energy
   **   ~~~   ** Check values should be zero. Most Recent values listed first.
   **   ~~~   ** Demand-to-Supply interface energy check value iteration history trace: 1146.703586,1146.703586,1146.703586,1146.703586,1146.703586,1146.703586,1146.703586,1146.703586,1146.703586,1146.703586,
   **   ~~~   ** Supply-to-demand interface deck 1 energy check value iteration history trace: 2003.583458,2003.583458,2003.583458,2003.583458,2003.583457,2003.583457,2003.583457,2003.583457,2003.583457,2003.583457,
   ** Warning ** SimHVAC: Maximum iterations (20) exceeded for all HVAC loops, at ANNUAL, 11/11 11:38 - 11:41
   **   ~~~   ** The solution for one or more of the Air Loop HVAC systems did not appear to converge
   **   ~~~   ** Air System Named = CENTRAL SYSTEM did not converge for mass flow rate
   **   ~~~   ** Check values should be zero. Most Recent values listed first.
   **   ~~~   ** Demand-to-Supply interface mass flow rate check value iteration history trace: 7.174712E-002,7.174712E-002,7.174712E-002,7.174712E-002,7.174712E-002,7.174712E-002,7.174712E-002,7.174712E-002,7.174712E-002,7.174711E-002,
   **   ~~~   ** Supply-to-demand interface deck 1 mass flow rate check value iteration history trace: 7.174712E-002,7.174712E-002,7.174712E-002,7.174712E-002,7.174712E-002,7.174712E-002,7.174712E-002,7.174712E-002,7.174712E-002,7.174711E-002,
   **   ~~~   ** Air System Named = CENTRAL SYSTEM did not converge for energy
   **   ~~~   ** Check values should be zero. Most Recent values listed first.
   **   ~~~   ** Demand-to-Supply interface energy check value iteration history trace: 1413.895706,1413.895705,1413.895705,1413.895705,1413.895705,1413.895705,1413.895705,1413.895705,1413.895705,1413.895705,
   **   ~~~   ** Supply-to-demand interface deck 1 energy check value iteration history trace: 2242.818055,2242.818055,2242.818055,2242.818054,2242.818054,2242.818054,2242.818054,2242.818054,2242.818054,2242.818054,
   ** Warning ** WetBulb not converged after 101 iterations(PsyTwbFnTdbWPb)
   **   ~~~   **  Routine=Unknown, Environment=ANNUAL, at Simulation time=12/14 02:30 - 02:45
   **   ~~~   **  Input Temperature = 2.80
   **   ~~~   **  Input Humidity Ratio= 2.747995E-003
   **   ~~~   **  Input Pressure = 98543.50
   **   ~~~   **  Resultant Temperature= 3.00E-002
   ************* Simulation Error Summary *************
   ** Warning ** The following Report Variables were requested but not generated -- check.rdd file
   **   ~~~   ** Either the IDF did not contain these elements, the variable name is misspelled,
   **   ~~~   ** or the requested variable is an advanced output which requires Output : Diagnostics, DisplayAdvancedReportVariables;
   ************* Key=*, VarName=BASEBOARD TOTAL HEATING ENERGY, Frequency=
   ************* Key=*, VarName=WATER HEATER NATURALGAS ENERGY, Frequency=
   ************* Key=*, VarName=COOLING COIL TOTAL HEATING ENERGY, Frequency=
   ************* There are 34 unused schedules in input.
   ************* There are 388 unused week schedules in input.
   ************* There are 396 unused day schedules in input.
   ************* Use Output:Diagnostics,DisplayUnusedSchedules; to see them.
   *************
   ************* ===== Recurring Error Summary =====
   ************* The following recurring error messages occurred.
   *************
   *************  ** Warning ** "TOTAL HOT WATER LOAD" - Target water temperature should be less than or equal to the hot water temperature error continues...
   *************  **   ~~~   **   This error occurred 57495 total times;
   *************  **   ~~~   **   during Warmup 0 times;
   *************  **   ~~~   **   during Sizing 0 times.
   *************  **   ~~~   **   Max=6.238747  Min=2.198734E-004
   *************
   *************  ** Warning ** SimHVAC: Exceeding Maximum iterations for all HVAC loops, during ANNUAL continues
   *************  **   ~~~   **   This error occurred 3 total times;
   *************  **   ~~~   **   during Warmup 0 times;
   *************  **   ~~~   **   during Sizing 0 times.
   *************
   *************  ** Warning ** WetBulb not converged after max iterations(PsyTwbFnTdbWPb)
   *************  **   ~~~   **   This error occurred 1 total times;
   *************  **   ~~~   **   during Warmup 0 times;
   *************  **   ~~~   **   during Sizing 0 times.
   *************
   *************
   ************* ===== Final Error Summary =====
   ************* The following error categories occurred.  Consider correcting or noting.
   ************* Nominally Unused Constructions
   ************* ..The nominally unused constructions warning is provided to alert you to potential conditions that can cause
   ************* ..extra time during simulation. Each construction is calculated by the algorithm indicated in the HeatBalanceAlgorithm
   ************* ..object. You may remove the constructions indicated (when you use the DisplayExtraWarnings option).
   *************
   ************* EnergyPlus Warmup Error Summary. During Warmup: 1 Warning; 0 Severe Errors.
   ************* EnergyPlus Sizing Error Summary. During Sizing: 4 Warning; 0 Severe Errors.
   ************* EnergyPlus Completed Successfully-- 57530 Warning; 0 Severe Errors; Elapsed Time=00hr 01min 33.36sec
