Program Version,EnergyPlus, Version 22.2.0-c249759bad, YMD=2023.09.01 19:28,
   ************* Beginning Zone Sizing Calculations
   ** Warning ** ProcessScheduleInput: Schedule:Constant="ALWAYS ON DISCRETE", Schedule Type Limits Name="ONOFF" not found -- will not be validated
   ** Warning ** Foundation:Kiva="KIVA FOUNDATION", no Interior Horizontal Insulation Material Name defined
   **   ~~~   ** Interior Horizontal Insulation Depth will not be used.
   ** Warning ** CheckUsedConstructions: There are 15 nominally unused constructions in input.
   **   ~~~   ** Each Unused construction is shown.
   ************* Construction=INTERIOR FLOOR
   ************* Construction=INTERIOR WINDOW
   ************* Construction=EXTERIOR DOOR
   ************* Construction=INTERIOR DOOR
   ************* Construction=GABLE CONSTRUCTION
   ************* Construction=CRAWL_FLOOR
   ************* Construction=INSULATED PIPE
   ************* Construction=PLAIN PIPE
   ************* Construction=TDD PIPE
   ************* Construction=TDD DOME
   ************* Construction=TDD DIFFUSER
   ************* Construction=CRAWL WALL
   ************* Construction=CEILING-FLOOR-LAYER
   ************* Construction=SLAB CONSTRUCTION W FULL R10 INSULATION
   ************* Construction=SLAB CONSTRUCTION W FULL R5 INSULATION
   ** Warning ** GetDXCoils: Coil:Heating:DX:SingleSpeed="DX_HEATING_COIL" curve values
   **   ~~~   ** ... Defrost Energy Input Ratio Function of Temperature Curve Name = DEFROSTEIR output is not equal to 1.0 (+ or - 10%) at rated conditions.
   **   ~~~   ** ... Curve output at rated conditions = 0.152
   ************* Beginning System Sizing Calculations
   ************* Beginning Plant Sizing Calculations
   ** Warning ** Coil:WaterHeating:AirToWaterHeatPump:Wrapped "HEAT PUMP WATER HEATER EVAPORATOR": Rated air volume flow rate per watt of rated total water heating capacity is out of range
   **   ~~~   ** Min Rated Vol Flow Per Watt=[4.027E-005], Rated Vol Flow Per Watt=[1.510E-004], Max Rated Vol Flow Per Watt=[8.056E-005]. See Input-Output Reference Manual for valid range.
   ************* SizeFan: : Potential issue with equipment sizing for Fan:OnOff HEAT PUMP WATER HEATER FAN
   **   ~~~   ** User-Specified Maximum Flow Rate [m3/s] = 0.22653
   **   ~~~   ** differs from Design Size Maximum Flow Rate [m3/s] = 7.55250E-002
   **   ~~~   ** This may, or may not, indicate mismatched component sizes.
   **   ~~~   ** Verify that the value entered is intended and is consistent with other components.
   ** Warning ** Water heater = WATER HEATER TANK:  Recovery Efficiency and Energy Factor could not be calculated during the test for standard ratings
   **   ~~~   ** Setpoint was never recovered and/or heater never turned on
   ** Warning ** Check input. Pump nominal power or motor efficiency is set to 0, for pump=MAINS PRESSURE
   ** Warning ** Output:Meter: invalid Key Name="ELECTRIC_RANGE:INTERIOREQUIPMENT:ELECTRICITY" - not found.
   ** Warning ** Output:Meter: invalid Key Name="ELECTRIC_DRYER:INTERIOREQUIPMENT:ELECTRICITY" - not found.
   ** Warning ** Output:Meter: invalid Key Name="HEATRECOVERY:ELECTRICITY" - not found.
   ** Warning ** Output:Meter: invalid Key Name="HEATING:NATURALGAS" - not found.
   ** Warning ** Output:Meter: invalid Key Name="WATERSYSTEMS:NATURALGAS" - not found.
   ** Warning ** Output:Meter: invalid Key Name="PROPANE:FACILITY" - not found.
   ** Warning ** Output:Meter: invalid Key Name="HEATING:PROPANE" - not found.
   ************* Testing Individual Branch Integrity
   ************* All Branches passed integrity testing
   ************* Testing Individual Supply Air Path Integrity
   ************* All Supply Air Paths passed integrity testing
   ************* Testing Individual Return Air Path Integrity
   ************* All Return Air Paths passed integrity testing
   ************* No node connection errors were found.
   ************* Beginning Simulation
   ** Warning ** AirflowNetwork::Solver::validate_distribution: Heat pump water heater is simulated along with an AirflowNetwork but is not included in the AirflowNetwork.
   ** Warning ** CalcEquipmentFlowRates: "TOTAL HOT WATER LOAD" - Target water temperature is greater than the hot water temperature by (0.27 C)
   **   ~~~   **  Environment=EXTREME_WINTER, at Simulation time=12/15 06:00 - 06:15
   **   ~~~   ** ...target water temperature     = 53.33 C
   **   ~~~   ** ...hot water temperature        = 53.07 C
   **   ~~~   ** ...Target water temperature should be less than or equal to the hot water temperature. Verify temperature setpoints and schedules.
   ** Warning ** SimHVAC: Maximum iterations (20) exceeded for all HVAC loops, at ANNUAL, 01/02 12:30 - 12:45
   **   ~~~   ** The solution for one or more of the Air Loop HVAC systems did not appear to converge
   **   ~~~   ** Air System Named = CENTRAL SYSTEM did not converge for mass flow rate
   **   ~~~   ** Check values should be zero. Most Recent values listed first.
   **   ~~~   ** Demand-to-Supply interface mass flow rate check value iteration history trace: 7.998317E-002,7.998317E-002,7.998317E-002,7.998317E-002,7.998317E-002,7.998317E-002,7.998317E-002,7.998317E-002,7.998317E-002,7.998317E-002,
   **   ~~~   ** Supply-to-demand interface deck 1 mass flow rate check value iteration history trace: 7.998317E-002,7.998317E-002,7.998317E-002,7.998317E-002,7.998317E-002,7.998317E-002,7.998317E-002,7.998317E-002,7.998317E-002,7.998317E-002,
   **   ~~~   ** Air System Named = CENTRAL SYSTEM did not converge for energy
   **   ~~~   ** Check values should be zero. Most Recent values listed first.
   **   ~~~   ** Demand-to-Supply interface energy check value iteration history trace: 1585.124675,1585.124675,1585.124675,1585.124675,1585.124675,1585.124674,1585.124674,1585.124674,1585.124674,1585.124674,
   **   ~~~   ** Supply-to-demand interface deck 1 energy check value iteration history trace: 2382.083074,2382.083073,2382.083073,2382.083073,2382.083073,2382.083073,2382.083072,2382.083072,2382.083072,2382.083072,
   ** Warning ** SimHVAC: Maximum iterations (20) exceeded for all HVAC loops, at ANNUAL, 02/18 10:09 - 10:12
   **   ~~~   ** The solution for one or more of the Air Loop HVAC systems did not appear to converge
   **   ~~~   ** Air System Named = CENTRAL SYSTEM did not converge for mass flow rate
   **   ~~~   ** Check values should be zero. Most Recent values listed first.
   **   ~~~   ** Demand-to-Supply interface mass flow rate check value iteration history trace: 7.646698E-002,7.646698E-002,7.646698E-002,7.646698E-002,7.646698E-002,7.646698E-002,7.646698E-002,7.646698E-002,7.646698E-002,7.646698E-002,
   **   ~~~   ** Supply-to-demand interface deck 1 mass flow rate check value iteration history trace: 7.646698E-002,7.646698E-002,7.646698E-002,7.646698E-002,7.646698E-002,7.646698E-002,7.646698E-002,7.646698E-002,7.646698E-002,7.646698E-002,
   **   ~~~   ** Air System Named = CENTRAL SYSTEM did not converge for energy
   **   ~~~   ** Check values should be zero. Most Recent values listed first.
   **   ~~~   ** Demand-to-Supply interface energy check value iteration history trace: 1512.897963,1512.897963,1512.897963,1512.897963,1512.897963,1512.897963,1512.897963,1512.897963,1512.897963,1512.897963,
   **   ~~~   ** Supply-to-demand interface deck 1 energy check value iteration history trace: 2588.711600,2588.711600,2588.711600,2588.711600,2588.711600,2588.711600,2588.711599,2588.711599,2588.711599,2588.711599,
   ** Warning ** SimHVAC: Maximum iterations (20) exceeded for all HVAC loops, at ANNUAL, 02/19 10:15 - 10:30
   **   ~~~   ** The solution for one or more of the Air Loop HVAC systems did not appear to converge
   **   ~~~   ** Air System Named = CENTRAL SYSTEM did not converge for mass flow rate
   **   ~~~   ** Check values should be zero. Most Recent values listed first.
   **   ~~~   ** Demand-to-Supply interface mass flow rate check value iteration history trace: 9.968837E-002,9.968837E-002,9.968837E-002,9.968837E-002,9.968837E-002,9.968837E-002,9.968837E-002,9.968837E-002,9.968837E-002,9.968837E-002,
   **   ~~~   ** Supply-to-demand interface deck 1 mass flow rate check value iteration history trace: 9.968837E-002,9.968837E-002,9.968837E-002,9.968837E-002,9.968837E-002,9.968837E-002,9.968837E-002,9.968837E-002,9.968837E-002,9.968837E-002,
   **   ~~~   ** Air System Named = CENTRAL SYSTEM did not converge for energy
   **   ~~~   ** Check values should be zero. Most Recent values listed first.
   **   ~~~   ** Demand-to-Supply interface energy check value iteration history trace: 1975.372542,1975.372541,1975.372541,1975.372541,1975.372541,1975.372541,1975.372541,1975.372541,1975.372541,1975.372540,
   **   ~~~   ** Supply-to-demand interface deck 1 energy check value iteration history trace: 3123.028026,3123.028026,3123.028026,3123.028026,3123.028026,3123.028025,3123.028025,3123.028025,3123.028025,3123.028025,
   ** Warning ** SimHVAC: Maximum iterations (20) exceeded for all HVAC loops, at ANNUAL, 03/04 20:15 - 20:22
   **   ~~~   ** The solution for one or more of the Air Loop HVAC systems did not appear to converge
   **   ~~~   ** Air System Named = CENTRAL SYSTEM did not converge for mass flow rate
   **   ~~~   ** Check values should be zero. Most Recent values listed first.
   **   ~~~   ** Demand-to-Supply interface mass flow rate check value iteration history trace: 8.291674E-002,8.291674E-002,8.291674E-002,8.291674E-002,8.291674E-002,8.291674E-002,8.291674E-002,8.291674E-002,8.291674E-002,8.291674E-002,
   **   ~~~   ** Supply-to-demand interface deck 1 mass flow rate check value iteration history trace: 8.291674E-002,8.291674E-002,8.291674E-002,8.291674E-002,8.291674E-002,8.291674E-002,8.291674E-002,8.291674E-002,8.291674E-002,8.291674E-002,
   **   ~~~   ** Air System Named = CENTRAL SYSTEM did not converge for energy
   **   ~~~   ** Check values should be zero. Most Recent values listed first.
   **   ~~~   ** Demand-to-Supply interface energy check value iteration history trace: 1628.226118,1628.226118,1628.226118,1628.226118,1628.226118,1628.226118,1628.226117,1628.226117,1628.226117,1628.226117,
   **   ~~~   ** Supply-to-demand interface deck 1 energy check value iteration history trace: 2557.387786,2557.387786,2557.387786,2557.387786,2557.387786,2557.387785,2557.387785,2557.387785,2557.387785,2557.387785,
   ** Warning ** SimHVAC: Maximum iterations (20) exceeded for all HVAC loops, at ANNUAL, 03/05 20:45 - 20:52
   **   ~~~   ** The solution for one or more of the Air Loop HVAC systems did not appear to converge
   **   ~~~   ** Air System Named = CENTRAL SYSTEM did not converge for mass flow rate
   **   ~~~   ** Check values should be zero. Most Recent values listed first.
   **   ~~~   ** Demand-to-Supply interface mass flow rate check value iteration history trace: 9.588240E-002,9.588240E-002,9.588240E-002,9.588240E-002,9.588240E-002,9.588240E-002,9.588240E-002,9.588240E-002,9.588240E-002,9.588240E-002,
   **   ~~~   ** Supply-to-demand interface deck 1 mass flow rate check value iteration history trace: 9.588240E-002,9.588240E-002,9.588240E-002,9.588240E-002,9.588240E-002,9.588240E-002,9.588240E-002,9.588240E-002,9.588240E-002,9.588240E-002,
   **   ~~~   ** Air System Named = CENTRAL SYSTEM did not converge for energy
   **   ~~~   ** Check values should be zero. Most Recent values listed first.
   **   ~~~   ** Demand-to-Supply interface energy check value iteration history trace: 1898.855180,1898.855180,1898.855180,1898.855180,1898.855180,1898.855179,1898.855179,1898.855179,1898.855179,1898.855179,
   **   ~~~   ** Supply-to-demand interface deck 1 energy check value iteration history trace: 2963.045024,2963.045024,2963.045023,2963.045023,2963.045023,2963.045023,2963.045023,2963.045022,2963.045022,2963.045022,
   ** Warning ** SimHVAC: Maximum iterations (20) exceeded for all HVAC loops, at ANNUAL, 03/18 09:15 - 09:30
   **   ~~~   ** The solution for one or more of the Air Loop HVAC systems did not appear to converge
   **   ~~~   ** Air System Named = CENTRAL SYSTEM did not converge for mass flow rate
   **   ~~~   ** Check values should be zero. Most Recent values listed first.
   **   ~~~   ** Demand-to-Supply interface mass flow rate check value iteration history trace: 6.872296E-002,6.872296E-002,6.872296E-002,6.872296E-002,6.872296E-002,6.872296E-002,6.872296E-002,6.872296E-002,6.872296E-002,6.872296E-002,
   **   ~~~   ** Supply-to-demand interface deck 1 mass flow rate check value iteration history trace: 6.872296E-002,6.872296E-002,6.872296E-002,6.872296E-002,6.872296E-002,6.872296E-002,6.872296E-002,6.872296E-002,6.872296E-002,6.872296E-002,
   **   ~~~   ** Air System Named = CENTRAL SYSTEM did not converge for energy
   **   ~~~   ** Check values should be zero. Most Recent values listed first.
   **   ~~~   ** Demand-to-Supply interface energy check value iteration history trace: 1354.280074,1354.280074,1354.280074,1354.280074,1354.280074,1354.280074,1354.280074,1354.280074,1354.280074,1354.280074,
   **   ~~~   ** Supply-to-demand interface deck 1 energy check value iteration history trace: 2412.824742,2412.824742,2412.824742,2412.824741,2412.824741,2412.824741,2412.824741,2412.824741,2412.824741,2412.824741,
   ** Warning ** SimHVAC: Maximum iterations (20) exceeded for all HVAC loops, at ANNUAL, 03/22 09:00 - 09:15
   **   ~~~   ** The solution for one or more of the Air Loop HVAC systems did not appear to converge
   **   ~~~   ** Air System Named = CENTRAL SYSTEM did not converge for mass flow rate
   **   ~~~   ** Check values should be zero. Most Recent values listed first.
   **   ~~~   ** Demand-to-Supply interface mass flow rate check value iteration history trace: 7.451204E-002,7.451204E-002,7.451204E-002,7.451204E-002,7.451204E-002,7.451204E-002,7.451204E-002,7.451204E-002,7.451204E-002,7.451204E-002,
   **   ~~~   ** Supply-to-demand interface deck 1 mass flow rate check value iteration history trace: 7.451204E-002,7.451204E-002,7.451204E-002,7.451204E-002,7.451204E-002,7.451204E-002,7.451204E-002,7.451204E-002,7.451204E-002,7.451204E-002,
   **   ~~~   ** Air System Named = CENTRAL SYSTEM did not converge for energy
   **   ~~~   ** Check values should be zero. Most Recent values listed first.
   **   ~~~   ** Demand-to-Supply interface energy check value iteration history trace: 1476.628533,1476.628533,1476.628533,1476.628533,1476.628533,1476.628533,1476.628533,1476.628533,1476.628532,1476.628532,
   **   ~~~   ** Supply-to-demand interface deck 1 energy check value iteration history trace: 2337.325132,2337.325132,2337.325132,2337.325132,2337.325132,2337.325132,2337.325132,2337.325131,2337.325131,2337.325131,
   ** Warning ** SimHVAC: Maximum iterations (20) exceeded for all HVAC loops, at ANNUAL, 03/22 09:15 - 09:17
   **   ~~~   ** The solution for one or more of the Air Loop HVAC systems did not appear to converge
   **   ~~~   ** Air System Named = CENTRAL SYSTEM did not converge for mass flow rate
   **   ~~~   ** Check values should be zero. Most Recent values listed first.
   **   ~~~   ** Demand-to-Supply interface mass flow rate check value iteration history trace: 6.057335E-002,6.057335E-002,6.057335E-002,6.057335E-002,6.057335E-002,6.057335E-002,6.057335E-002,6.057335E-002,6.057335E-002,6.057335E-002,
   **   ~~~   ** Supply-to-demand interface deck 1 mass flow rate check value iteration history trace: 6.057335E-002,6.057335E-002,6.057335E-002,6.057335E-002,6.057335E-002,6.057335E-002,6.057335E-002,6.057335E-002,6.057335E-002,6.057335E-002,
   **   ~~~   ** Air System Named = CENTRAL SYSTEM did not converge for energy
   **   ~~~   ** Check values should be zero. Most Recent values listed first.
   **   ~~~   ** Demand-to-Supply interface energy check value iteration history trace: 1198.825864,1198.825864,1198.825864,1198.825864,1198.825864,1198.825864,1198.825864,1198.825864,1198.825864,1198.825864,
   **   ~~~   ** Supply-to-demand interface deck 1 energy check value iteration history trace: 2039.161353,2039.161353,2039.161353,2039.161353,2039.161353,2039.161353,2039.161353,2039.161353,2039.161353,2039.161353,
   ** Warning ** SimHVAC: Maximum iterations (20) exceeded for all HVAC loops, at ANNUAL, 03/29 08:45 - 08:47
   **   ~~~   ** The solution for one or more of the Air Loop HVAC systems did not appear to converge
   **   ~~~   ** Air System Named = CENTRAL SYSTEM did not converge for mass flow rate
   **   ~~~   ** Check values should be zero. Most Recent values listed first.
   **   ~~~   ** Demand-to-Supply interface mass flow rate check value iteration history trace: 6.222024E-002,6.222024E-002,6.222024E-002,6.222024E-002,6.222024E-002,6.222024E-002,6.222024E-002,6.222024E-002,6.222024E-002,6.222024E-002,
   **   ~~~   ** Supply-to-demand interface deck 1 mass flow rate check value iteration history trace: 6.222024E-002,6.222024E-002,6.222024E-002,6.222024E-002,6.222024E-002,6.222024E-002,6.222024E-002,6.222024E-002,6.222024E-002,6.222024E-002,
   **   ~~~   ** Air System Named = CENTRAL SYSTEM did not converge for energy
   **   ~~~   ** Check values should be zero. Most Recent values listed first.
   **   ~~~   ** Demand-to-Supply interface energy check value iteration history trace: 1233.014676,1233.014676,1233.014676,1233.014676,1233.014676,1233.014676,1233.014676,1233.014676,1233.014676,1233.014676,
   **   ~~~   ** Supply-to-demand interface deck 1 energy check value iteration history trace: 2149.813956,2149.813956,2149.813956,2149.813956,2149.813956,2149.813955,2149.813955,2149.813955,2149.813955,2149.813955,
   ** Warning ** SimHVAC: Maximum iterations (20) exceeded for all HVAC loops, at ANNUAL, 04/15 12:08 - 12:10
   **   ~~~   ** The solution for one or more of the Air Loop HVAC systems did not appear to converge
   **   ~~~   ** Air System Named = CENTRAL SYSTEM did not converge for mass flow rate
   **   ~~~   ** Check values should be zero. Most Recent values listed first.
   **   ~~~   ** Demand-to-Supply interface mass flow rate check value iteration history trace: 6.750279E-002,6.750279E-002,6.750279E-002,6.750279E-002,6.750279E-002,6.750279E-002,6.750279E-002,6.750279E-002,6.750279E-002,6.750279E-002,
   **   ~~~   ** Supply-to-demand interface deck 1 mass flow rate check value iteration history trace: 6.750279E-002,6.750279E-002,6.750279E-002,6.750279E-002,6.750279E-002,6.750279E-002,6.750279E-002,6.750279E-002,6.750279E-002,6.750279E-002,
   **   ~~~   ** Air System Named = CENTRAL SYSTEM did not converge for energy
   **   ~~~   ** Check values should be zero. Most Recent values listed first.
   **   ~~~   ** Demand-to-Supply interface energy check value iteration history trace: 1335.711515,1335.711514,1335.711514,1335.711514,1335.711514,1335.711514,1335.711514,1335.711514,1335.711514,1335.711514,
   **   ~~~   ** Supply-to-demand interface deck 1 energy check value iteration history trace: 2119.058564,2119.058564,2119.058564,2119.058564,2119.058564,2119.058563,2119.058563,2119.058563,2119.058563,2119.058563,
   ** Warning ** SimHVAC: Maximum iterations (20) exceeded for all HVAC loops, at ANNUAL, 04/23 11:00 - 11:15
   **   ~~~   ** The solution for one or more of the Air Loop HVAC systems did not appear to converge
   **   ~~~   ** Air System Named = CENTRAL SYSTEM did not converge for mass flow rate
   **   ~~~   ** Check values should be zero. Most Recent values listed first.
   **   ~~~   ** Demand-to-Supply interface mass flow rate check value iteration history trace: 6.607673E-002,6.607673E-002,6.607673E-002,6.607673E-002,6.607673E-002,6.607673E-002,6.607673E-002,6.607673E-002,6.607673E-002,6.607673E-002,
   **   ~~~   ** Supply-to-demand interface deck 1 mass flow rate check value iteration history trace: 6.607673E-002,6.607673E-002,6.607673E-002,6.607673E-002,6.607673E-002,6.607673E-002,6.607673E-002,6.607673E-002,6.607673E-002,6.607673E-002,
   **   ~~~   ** Air System Named = CENTRAL SYSTEM did not converge for energy
   **   ~~~   ** Check values should be zero. Most Recent values listed first.
   **   ~~~   ** Demand-to-Supply interface energy check value iteration history trace: 1307.989626,1307.989626,1307.989626,1307.989626,1307.989626,1307.989626,1307.989626,1307.989626,1307.989626,1307.989626,
   **   ~~~   ** Supply-to-demand interface deck 1 energy check value iteration history trace: 2323.447748,2323.447748,2323.447748,2323.447747,2323.447747,2323.447747,2323.447747,2323.447747,2323.447747,2323.447747,
   ** Warning ** SimHVAC: Maximum iterations (20) exceeded for all HVAC loops, at ANNUAL, 04/23 23:30 - 23:45
   **   ~~~   ** The solution for one or more of the Air Loop HVAC systems did not appear to converge
   **   ~~~   ** Air System Named = CENTRAL SYSTEM did not converge for mass flow rate
   **   ~~~   ** Check values should be zero. Most Recent values listed first.
   **   ~~~   ** Demand-to-Supply interface mass flow rate check value iteration history trace: 1.345127E-002,1.345127E-002,1.345127E-002,1.345127E-002,1.345127E-002,1.345127E-002,1.345127E-002,1.345127E-002,1.345127E-002,1.345127E-002,
   **   ~~~   ** Supply-to-demand interface deck 1 mass flow rate check value iteration history trace: 1.345127E-002,1.345127E-002,1.345127E-002,1.345127E-002,1.345127E-002,1.345127E-002,1.345127E-002,1.345127E-002,1.345127E-002,1.345127E-002,
   **   ~~~   ** Air System Named = CENTRAL SYSTEM did not converge for energy
   **   ~~~   ** Check values should be zero. Most Recent values listed first.
   **   ~~~   ** Demand-to-Supply interface energy check value iteration history trace: 248.124327,248.124327,248.124327,248.124327,248.124327,248.124327,248.124327,248.124327,248.124327,248.124327,
   **   ~~~   ** Supply-to-demand interface deck 1 energy check value iteration history trace: 463.356109,463.356109,463.356109,463.356109,463.356109,463.356109,463.356109,463.356109,463.356109,463.356109,
   ** Warning ** SimHVAC: Maximum iterations (20) exceeded for all HVAC loops, at ANNUAL, 04/24 12:08 - 12:15
   **   ~~~   ** The solution for one or more of the Air Loop HVAC systems did not appear to converge
   **   ~~~   ** Air System Named = CENTRAL SYSTEM did not converge for mass flow rate
   **   ~~~   ** Check values should be zero. Most Recent values listed first.
   **   ~~~   ** Demand-to-Supply interface mass flow rate check value iteration history trace: 4.533551E-002,4.533551E-002,4.533551E-002,4.533551E-002,4.533551E-002,4.533551E-002,4.533551E-002,4.533551E-002,4.533551E-002,4.533551E-002,
   **   ~~~   ** Supply-to-demand interface deck 1 mass flow rate check value iteration history trace: 4.533551E-002,4.533551E-002,4.533551E-002,4.533551E-002,4.533551E-002,4.533551E-002,4.533551E-002,4.533551E-002,4.533551E-002,4.533551E-002,
   **   ~~~   ** Air System Named = CENTRAL SYSTEM did not converge for energy
   **   ~~~   ** Check values should be zero. Most Recent values listed first.
   **   ~~~   ** Demand-to-Supply interface energy check value iteration history trace: 892.048877,892.048877,892.048877,892.048877,892.048877,892.048877,892.048877,892.048877,892.048876,892.048876,
   **   ~~~   ** Supply-to-demand interface deck 1 energy check value iteration history trace: 1656.778099,1656.778099,1656.778098,1656.778098,1656.778098,1656.778098,1656.778098,1656.778098,1656.778098,1656.778098,
   ** Warning ** SimHVAC: Maximum iterations (20) exceeded for all HVAC loops, at ANNUAL, 05/15 06:30 - 06:45
   **   ~~~   ** The solution for one or more of the Air Loop HVAC systems did not appear to converge
   **   ~~~   ** Air System Named = CENTRAL SYSTEM did not converge for mass flow rate
   **   ~~~   ** Check values should be zero. Most Recent values listed first.
   **   ~~~   ** Demand-to-Supply interface mass flow rate check value iteration history trace: 7.035155E-002,7.035155E-002,7.035155E-002,7.035155E-002,7.035155E-002,7.035155E-002,7.035155E-002,7.035155E-002,7.035155E-002,7.035155E-002,
   **   ~~~   ** Supply-to-demand interface deck 1 mass flow rate check value iteration history trace: 7.035155E-002,7.035155E-002,7.035155E-002,7.035155E-002,7.035155E-002,7.035155E-002,7.035155E-002,7.035155E-002,7.035155E-002,7.035155E-002,
   **   ~~~   ** Air System Named = CENTRAL SYSTEM did not converge for energy
   **   ~~~   ** Check values should be zero. Most Recent values listed first.
   **   ~~~   ** Demand-to-Supply interface energy check value iteration history trace: 1393.785394,1393.785394,1393.785394,1393.785394,1393.785394,1393.785394,1393.785394,1393.785394,1393.785394,1393.785394,
   **   ~~~   ** Supply-to-demand interface deck 1 energy check value iteration history trace: 2374.471962,2374.471962,2374.471962,2374.471962,2374.471962,2374.471962,2374.471962,2374.471962,2374.471962,2374.471962,
   ************* Simulation Error Summary *************
   ** Warning ** The following Report Variables were requested but not generated -- check.rdd file
   **   ~~~   ** Either the IDF did not contain these elements, the variable name is misspelled,
   **   ~~~   ** or the requested variable is an advanced output which requires Output : Diagnostics, DisplayAdvancedReportVariables;
   ************* Key=*, VarName=BASEBOARD TOTAL HEATING ENERGY, Frequency=
   ************* Key=*, VarName=WATER HEATER NATURALGAS ENERGY, Frequency=
   ************* Key=*, VarName=COOLING COIL TOTAL HEATING ENERGY, Frequency=
   ************* There are 34 unused schedules in input.
   ************* There are 388 unused week schedules in input.
   ************* There are 396 unused day schedules in input.
   ************* Use Output:Diagnostics,DisplayUnusedSchedules; to see them.
   *************
   ************* ===== Recurring Error Summary =====
   ************* The following recurring error messages occurred.
   *************
   *************  ** Warning ** "TOTAL HOT WATER LOAD" - Target water temperature should be less than or equal to the hot water temperature error continues...
   *************  **   ~~~   **   This error occurred 109265 total times;
   *************  **   ~~~   **   during Warmup 0 times;
   *************  **   ~~~   **   during Sizing 0 times.
   *************  **   ~~~   **   Max=10.228784  Min=6.777892E-004
   *************
   *************  ** Warning ** SimHVAC: Exceeding Maximum iterations for all HVAC loops, during ANNUAL continues
   *************  **   ~~~   **   This error occurred 10 total times;
   *************  **   ~~~   **   during Warmup 0 times;
   *************  **   ~~~   **   during Sizing 0 times.
   *************
   *************
   ************* ===== Final Error Summary =====
   ************* The following error categories occurred.  Consider correcting or noting.
   ************* Nominally Unused Constructions
   ************* ..The nominally unused constructions warning is provided to alert you to potential conditions that can cause
   ************* ..extra time during simulation. Each construction is calculated by the algorithm indicated in the HeatBalanceAlgorithm
   ************* ..object. You may remove the constructions indicated (when you use the DisplayExtraWarnings option).
   *************
   ************* EnergyPlus Warmup Error Summary. During Warmup: 1 Warning; 0 Severe Errors.
   ************* EnergyPlus Sizing Error Summary. During Sizing: 4 Warning; 0 Severe Errors.
   ************* EnergyPlus Completed Successfully-- 109306 Warning; 0 Severe Errors; Elapsed Time=00hr 01min 30.12sec
