Program Version,EnergyPlus, Version 22.2.0-c249759bad, YMD=2023.09.01 19:18,
   ************* Beginning Zone Sizing Calculations
   ** Warning ** ProcessScheduleInput: Schedule:Constant="ALWAYS ON DISCRETE", Schedule Type Limits Name="ONOFF" not found -- will not be validated
   ** Warning ** Foundation:Kiva="KIVA FOUNDATION", no Interior Horizontal Insulation Material Name defined
   **   ~~~   ** Interior Horizontal Insulation Depth will not be used.
   ** Warning ** CheckUsedConstructions: There are 15 nominally unused constructions in input.
   **   ~~~   ** Each Unused construction is shown.
   ************* Construction=INTERIOR FLOOR
   ************* Construction=INTERIOR WINDOW
   ************* Construction=EXTERIOR DOOR
   ************* Construction=INTERIOR DOOR
   ************* Construction=GABLE CONSTRUCTION
   ************* Construction=CRAWL_FLOOR
   ************* Construction=INSULATED PIPE
   ************* Construction=PLAIN PIPE
   ************* Construction=TDD PIPE
   ************* Construction=TDD DOME
   ************* Construction=TDD DIFFUSER
   ************* Construction=CRAWL WALL
   ************* Construction=CEILING-FLOOR-LAYER
   ************* Construction=SLAB CONSTRUCTION W FULL R10 INSULATION
   ************* Construction=SLAB CONSTRUCTION W FULL R5 INSULATION
   ** Warning ** GetDXCoils: Coil:Heating:DX:SingleSpeed="DX_HEATING_COIL" curve values
   **   ~~~   ** ... Defrost Energy Input Ratio Function of Temperature Curve Name = DEFROSTEIR output is not equal to 1.0 (+ or - 10%) at rated conditions.
   **   ~~~   ** ... Curve output at rated conditions = 0.152
   ************* Beginning System Sizing Calculations
   ************* Beginning Plant Sizing Calculations
   ** Warning ** SizeDXCoil Coil:Cooling:DX:SingleSpeed DX_COOLING_COIL
   **   ~~~   ** ...Gross Rated Total Cooling Capacity [W] will be limited by the maximum rated volume flow per rated total capacity ratio.
   **   ~~~   ** ...DX coil volume flow rate ( m3/s ) = 0.384858
   **   ~~~   ** ...Requested capacity ( W ) = 5695.251
   **   ~~~   ** ...Requested flow/capacity ratio ( m3/s/W ) = 6.757E-005
   **   ~~~   ** ...Maximum flow/capacity ratio ( m3/s/W ) = 6.041E-005
   **   ~~~   ** ...Adjusted capacity ( W ) = 6370.776
   ** Warning ** Coil:WaterHeating:AirToWaterHeatPump:Wrapped "HEAT PUMP WATER HEATER EVAPORATOR": Rated air volume flow rate per watt of rated total water heating capacity is out of range
   **   ~~~   ** Min Rated Vol Flow Per Watt=[4.027E-005], Rated Vol Flow Per Watt=[1.510E-004], Max Rated Vol Flow Per Watt=[8.056E-005]. See Input-Output Reference Manual for valid range.
   ************* SizeFan: : Potential issue with equipment sizing for Fan:OnOff HEAT PUMP WATER HEATER FAN
   **   ~~~   ** User-Specified Maximum Flow Rate [m3/s] = 0.22653
   **   ~~~   ** differs from Design Size Maximum Flow Rate [m3/s] = 7.55250E-002
   **   ~~~   ** This may, or may not, indicate mismatched component sizes.
   **   ~~~   ** Verify that the value entered is intended and is consistent with other components.
   ** Warning ** Water heater = WATER HEATER TANK:  Recovery Efficiency and Energy Factor could not be calculated during the test for standard ratings
   **   ~~~   ** Setpoint was never recovered and/or heater never turned on
   ** Warning ** Check input. Pump nominal power or motor efficiency is set to 0, for pump=MAINS PRESSURE
   ** Warning ** Output:Meter: invalid Key Name="ELECTRIC_RANGE:INTERIOREQUIPMENT:ELECTRICITY" - not found.
   ** Warning ** Output:Meter: invalid Key Name="ELECTRIC_DRYER:INTERIOREQUIPMENT:ELECTRICITY" - not found.
   ** Warning ** Output:Meter: invalid Key Name="HEATRECOVERY:ELECTRICITY" - not found.
   ** Warning ** Output:Meter: invalid Key Name="HEATING:NATURALGAS" - not found.
   ** Warning ** Output:Meter: invalid Key Name="WATERSYSTEMS:NATURALGAS" - not found.
   ** Warning ** Output:Meter: invalid Key Name="PROPANE:FACILITY" - not found.
   ** Warning ** Output:Meter: invalid Key Name="HEATING:PROPANE" - not found.
   ************* Testing Individual Branch Integrity
   ************* All Branches passed integrity testing
   ************* Testing Individual Supply Air Path Integrity
   ************* All Supply Air Paths passed integrity testing
   ************* Testing Individual Return Air Path Integrity
   ************* All Return Air Paths passed integrity testing
   ************* No node connection errors were found.
   ************* Beginning Simulation
   ** Warning ** AirflowNetwork::Solver::validate_distribution: Heat pump water heater is simulated along with an AirflowNetwork but is not included in the AirflowNetwork.
   ** Severe  ** CheckWarmupConvergence: Loads Initialization, Zone="LIVING" did not converge after 25 warmup days.
   **   ~~~   ** See Warmup Convergence Information in .eio file for details.
   **   ~~~   ** ...Environment(SizingPeriod)="EXTREME_WINTER"
   **   ~~~   ** ..Max Temp Comparison = 5.66E-004 vs Temperature Convergence Tolerance=5.00E-002 - Pass Convergence
   **   ~~~   ** ..Min Temp Comparison = 8.35E-004 vs Temperature Convergence Tolerance=5.00E-002 - Pass Convergence
   **   ~~~   ** ..Max Heat Load Comparison = 5.7520E-002 vs Loads Convergence Tolerance=5.00E-002 - Fail Convergence
   **   ~~~   ** ..Max Cool Load Comparison = 1.1074E-004 vs Loads Convergence Tolerance=5.00E-002 - Pass Convergence
   ** Severe  ** CheckWarmupConvergence: Loads Initialization, Zone="ATTIC" did not converge after 25 warmup days.
   **   ~~~   ** ...Environment(SizingPeriod)="EXTREME_WINTER"
   **   ~~~   ** ..Max Temp Comparison = 1.37E-003 vs Temperature Convergence Tolerance=5.00E-002 - Pass Convergence
   **   ~~~   ** ..Min Temp Comparison = 8.10E-002 vs Temperature Convergence Tolerance=5.00E-002 - Fail Convergence
   **   ~~~   ** ..Max Heat Load Comparison = 0.0000 vs Loads Convergence Tolerance=5.00E-002 - Pass Convergence
   **   ~~~   ** ..Max Cool Load Comparison = 0.0000 vs Loads Convergence Tolerance=5.00E-002 - Pass Convergence
   ** Warning ** CalcEquipmentFlowRates: "TOTAL HOT WATER LOAD" - Target water temperature is greater than the hot water temperature by (1.30E-002 C)
   **   ~~~   **  Environment=EXTREME_WINTER, at Simulation time=01/22 06:45 - 07:00
   **   ~~~   ** ...target water temperature     = 53.33 C
   **   ~~~   ** ...hot water temperature        = 53.32 C
   **   ~~~   ** ...Target water temperature should be less than or equal to the hot water temperature. Verify temperature setpoints and schedules.
   ** Warning ** SimHVAC: Maximum iterations (20) exceeded for all HVAC loops, at EXTREME_WINTER, 01/28 17:45 - 18:00
   **   ~~~   ** The solution for one or more of the Air Loop HVAC systems did not appear to converge
   **   ~~~   ** Air System Named = CENTRAL SYSTEM did not converge for mass flow rate
   **   ~~~   ** Check values should be zero. Most Recent values listed first.
   **   ~~~   ** Demand-to-Supply interface mass flow rate check value iteration history trace: 5.792347E-002,5.792347E-002,5.792347E-002,5.792347E-002,5.792347E-002,5.792347E-002,5.792347E-002,5.792347E-002,5.792347E-002,5.792347E-002,
   **   ~~~   ** Supply-to-demand interface deck 1 mass flow rate check value iteration history trace: 5.792347E-002,5.792347E-002,5.792347E-002,5.792347E-002,5.792347E-002,5.792347E-002,5.792347E-002,5.792347E-002,5.792347E-002,5.792347E-002,
   **   ~~~   ** Air System Named = CENTRAL SYSTEM did not converge for energy
   **   ~~~   ** Check values should be zero. Most Recent values listed first.
   **   ~~~   ** Demand-to-Supply interface energy check value iteration history trace: 1148.868023,1148.868023,1148.868023,1148.868023,1148.868023,1148.868023,1148.868022,1148.868022,1148.868022,1148.868022,
   **   ~~~   ** Supply-to-demand interface deck 1 energy check value iteration history trace: 2004.760317,2004.760317,2004.760317,2004.760317,2004.760317,2004.760317,2004.760317,2004.760317,2004.760317,2004.760316,
   ** Warning ** Temperature out of range [-100. to 200.] (PsyPsatFnTemp)
   **   ~~~   **  Routine=PsyTwbFnTdbWPb, Environment=ANNUAL, at Simulation time=01/20 08:30 - 08:38
   **   ~~~   **  Input Temperature=-138.12
   ** Warning ** SimHVAC: Maximum iterations (20) exceeded for all HVAC loops, at ANNUAL, 02/23 18:06 - 18:09
   **   ~~~   ** The solution for one or more of the Air Loop HVAC systems did not appear to converge
   **   ~~~   ** Air System Named = CENTRAL SYSTEM did not converge for mass flow rate
   **   ~~~   ** Check values should be zero. Most Recent values listed first.
   **   ~~~   ** Demand-to-Supply interface mass flow rate check value iteration history trace: 8.150456E-002,8.150456E-002,8.150456E-002,8.150456E-002,8.150456E-002,8.150456E-002,8.150456E-002,8.150456E-002,8.150456E-002,8.150456E-002,
   **   ~~~   ** Supply-to-demand interface deck 1 mass flow rate check value iteration history trace: 8.150456E-002,8.150456E-002,8.150456E-002,8.150456E-002,8.150456E-002,8.150456E-002,8.150456E-002,8.150456E-002,8.150456E-002,8.150456E-002,
   **   ~~~   ** Air System Named = CENTRAL SYSTEM did not converge for energy
   **   ~~~   ** Check values should be zero. Most Recent values listed first.
   **   ~~~   ** Demand-to-Supply interface energy check value iteration history trace: 1616.093812,1616.093812,1616.093812,1616.093812,1616.093811,1616.093811,1616.093811,1616.093811,1616.093811,1616.093811,
   **   ~~~   ** Supply-to-demand interface deck 1 energy check value iteration history trace: 2489.124549,2489.124549,2489.124549,2489.124549,2489.124549,2489.124548,2489.124548,2489.124548,2489.124548,2489.124548,
   ** Warning ** SimHVAC: Maximum iterations (20) exceeded for all HVAC loops, at ANNUAL, 03/01 12:15 - 12:30
   **   ~~~   ** The solution for one or more of the Air Loop HVAC systems did not appear to converge
   **   ~~~   ** Air System Named = CENTRAL SYSTEM did not converge for mass flow rate
   **   ~~~   ** Check values should be zero. Most Recent values listed first.
   **   ~~~   ** Demand-to-Supply interface mass flow rate check value iteration history trace: 6.567494E-002,6.567494E-002,6.567494E-002,6.567494E-002,6.567494E-002,6.567494E-002,6.567494E-002,6.567494E-002,6.567494E-002,6.567494E-002,
   **   ~~~   ** Supply-to-demand interface deck 1 mass flow rate check value iteration history trace: 6.567494E-002,6.567494E-002,6.567494E-002,6.567494E-002,6.567494E-002,6.567494E-002,6.567494E-002,6.567494E-002,6.567494E-002,6.567494E-002,
   **   ~~~   ** Air System Named = CENTRAL SYSTEM did not converge for energy
   **   ~~~   ** Check values should be zero. Most Recent values listed first.
   **   ~~~   ** Demand-to-Supply interface energy check value iteration history trace: 1298.784151,1298.784151,1298.784151,1298.784150,1298.784150,1298.784150,1298.784150,1298.784150,1298.784150,1298.784150,
   **   ~~~   ** Supply-to-demand interface deck 1 energy check value iteration history trace: 2005.832561,2005.832561,2005.832561,2005.832561,2005.832561,2005.832561,2005.832560,2005.832560,2005.832560,2005.832560,
   ** Warning ** SimHVAC: Maximum iterations (20) exceeded for all HVAC loops, at ANNUAL, 03/04 12:00 - 12:08
   **   ~~~   ** The solution for one or more of the Air Loop HVAC systems did not appear to converge
   **   ~~~   ** Air System Named = CENTRAL SYSTEM did not converge for mass flow rate
   **   ~~~   ** Check values should be zero. Most Recent values listed first.
   **   ~~~   ** Demand-to-Supply interface mass flow rate check value iteration history trace: 5.824942E-002,5.824942E-002,5.824942E-002,5.824942E-002,5.824942E-002,5.824942E-002,5.824942E-002,5.824942E-002,5.824942E-002,5.824942E-002,
   **   ~~~   ** Supply-to-demand interface deck 1 mass flow rate check value iteration history trace: 5.824942E-002,5.824942E-002,5.824942E-002,5.824942E-002,5.824942E-002,5.824942E-002,5.824942E-002,5.824942E-002,5.824942E-002,5.824942E-002,
   **   ~~~   ** Air System Named = CENTRAL SYSTEM did not converge for energy
   **   ~~~   ** Check values should be zero. Most Recent values listed first.
   **   ~~~   ** Demand-to-Supply interface energy check value iteration history trace: 1154.312537,1154.312537,1154.312537,1154.312537,1154.312537,1154.312537,1154.312537,1154.312537,1154.312537,1154.312537,
   **   ~~~   ** Supply-to-demand interface deck 1 energy check value iteration history trace: 2086.390495,2086.390495,2086.390495,2086.390495,2086.390495,2086.390494,2086.390494,2086.390494,2086.390494,2086.390494,
   ** Warning ** SimHVAC: Maximum iterations (20) exceeded for all HVAC loops, at ANNUAL, 03/19 10:00 - 10:15
   **   ~~~   ** The solution for one or more of the Air Loop HVAC systems did not appear to converge
   **   ~~~   ** Air System Named = CENTRAL SYSTEM did not converge for mass flow rate
   **   ~~~   ** Check values should be zero. Most Recent values listed first.
   **   ~~~   ** Demand-to-Supply interface mass flow rate check value iteration history trace: 4.154504E-002,4.154504E-002,4.154504E-002,4.154504E-002,4.154504E-002,4.154504E-002,4.154504E-002,4.154504E-002,4.154504E-002,4.154504E-002,
   **   ~~~   ** Supply-to-demand interface deck 1 mass flow rate check value iteration history trace: 4.154504E-002,4.154504E-002,4.154504E-002,4.154504E-002,4.154504E-002,4.154504E-002,4.154504E-002,4.154504E-002,4.154504E-002,4.154504E-002,
   **   ~~~   ** Air System Named = CENTRAL SYSTEM did not converge for energy
   **   ~~~   ** Check values should be zero. Most Recent values listed first.
   **   ~~~   ** Demand-to-Supply interface energy check value iteration history trace: 822.687671,822.687671,822.687671,822.687671,822.687671,822.687671,822.687671,822.687671,822.687671,822.687671,
   **   ~~~   ** Supply-to-demand interface deck 1 energy check value iteration history trace: 1282.825980,1282.825980,1282.825980,1282.825980,1282.825980,1282.825980,1282.825980,1282.825980,1282.825980,1282.825980,
   ** Warning ** SimHVAC: Maximum iterations (20) exceeded for all HVAC loops, at ANNUAL, 04/06 09:45 - 09:48
   **   ~~~   ** The solution for one or more of the Air Loop HVAC systems did not appear to converge
   **   ~~~   ** Air System Named = CENTRAL SYSTEM did not converge for mass flow rate
   **   ~~~   ** Check values should be zero. Most Recent values listed first.
   **   ~~~   ** Demand-to-Supply interface mass flow rate check value iteration history trace: 8.381559E-002,8.381559E-002,8.381559E-002,8.381559E-002,8.381559E-002,8.381559E-002,8.381559E-002,8.381559E-002,8.381559E-002,8.381559E-002,
   **   ~~~   ** Supply-to-demand interface deck 1 mass flow rate check value iteration history trace: 8.381559E-002,8.381559E-002,8.381559E-002,8.381559E-002,8.381559E-002,8.381559E-002,8.381559E-002,8.381559E-002,8.381559E-002,8.381559E-002,
   **   ~~~   ** Air System Named = CENTRAL SYSTEM did not converge for energy
   **   ~~~   ** Check values should be zero. Most Recent values listed first.
   **   ~~~   ** Demand-to-Supply interface energy check value iteration history trace: 1656.481772,1656.481772,1656.481771,1656.481771,1656.481771,1656.481771,1656.481771,1656.481771,1656.481771,1656.481771,
   **   ~~~   ** Supply-to-demand interface deck 1 energy check value iteration history trace: 2819.185466,2819.185465,2819.185465,2819.185465,2819.185465,2819.185465,2819.185465,2819.185465,2819.185465,2819.185464,
   ** Warning ** SimHVAC: Maximum iterations (20) exceeded for all HVAC loops, at ANNUAL, 04/17 00:45 - 01:00
   **   ~~~   ** The solution for one or more of the Air Loop HVAC systems did not appear to converge
   **   ~~~   ** Air System Named = CENTRAL SYSTEM did not converge for mass flow rate
   **   ~~~   ** Check values should be zero. Most Recent values listed first.
   **   ~~~   ** Demand-to-Supply interface mass flow rate check value iteration history trace: 6.649180E-002,6.649180E-002,6.649180E-002,6.649180E-002,6.649180E-002,6.649180E-002,6.649180E-002,6.649180E-002,6.649180E-002,6.649180E-002,
   **   ~~~   ** Supply-to-demand interface deck 1 mass flow rate check value iteration history trace: 6.649180E-002,6.649180E-002,6.649180E-002,6.649180E-002,6.649180E-002,6.649180E-002,6.649180E-002,6.649180E-002,6.649180E-002,6.649180E-002,
   **   ~~~   ** Air System Named = CENTRAL SYSTEM did not converge for energy
   **   ~~~   ** Check values should be zero. Most Recent values listed first.
   **   ~~~   ** Demand-to-Supply interface energy check value iteration history trace: 1242.312286,1242.312286,1242.312286,1242.312286,1242.312286,1242.312286,1242.312286,1242.312286,1242.312286,1242.312285,
   **   ~~~   ** Supply-to-demand interface deck 1 energy check value iteration history trace: 2014.083600,2014.083600,2014.083600,2014.083600,2014.083600,2014.083600,2014.083599,2014.083599,2014.083599,2014.083599,
   ** Warning ** SimHVAC: Maximum iterations (20) exceeded for all HVAC loops, at ANNUAL, 04/29 05:10 - 05:15
   **   ~~~   ** The solution for one or more of the Air Loop HVAC systems did not appear to converge
   **   ~~~   ** Air System Named = CENTRAL SYSTEM did not converge for mass flow rate
   **   ~~~   ** Check values should be zero. Most Recent values listed first.
   **   ~~~   ** Demand-to-Supply interface mass flow rate check value iteration history trace: 4.964209E-002,4.964209E-002,4.964209E-002,4.964209E-002,4.964209E-002,4.964209E-002,4.964209E-002,4.964209E-002,4.964209E-002,4.964209E-002,
   **   ~~~   ** Supply-to-demand interface deck 1 mass flow rate check value iteration history trace: 4.964209E-002,4.964209E-002,4.964209E-002,4.964209E-002,4.964209E-002,4.964209E-002,4.964209E-002,4.964209E-002,4.964209E-002,4.964209E-002,
   **   ~~~   ** Air System Named = CENTRAL SYSTEM did not converge for energy
   **   ~~~   ** Check values should be zero. Most Recent values listed first.
   **   ~~~   ** Demand-to-Supply interface energy check value iteration history trace: 989.937186,989.937186,989.937186,989.937186,989.937186,989.937186,989.937186,989.937186,989.937185,989.937185,
   **   ~~~   ** Supply-to-demand interface deck 1 energy check value iteration history trace: 1750.772898,1750.772898,1750.772898,1750.772898,1750.772898,1750.772898,1750.772898,1750.772897,1750.772897,1750.772897,
   ** Warning ** SimHVAC: Maximum iterations (20) exceeded for all HVAC loops, at ANNUAL, 04/30 04:00 - 04:15
   **   ~~~   ** The solution for one or more of the Air Loop HVAC systems did not appear to converge
   **   ~~~   ** Air System Named = CENTRAL SYSTEM did not converge for mass flow rate
   **   ~~~   ** Check values should be zero. Most Recent values listed first.
   **   ~~~   ** Demand-to-Supply interface mass flow rate check value iteration history trace: 4.288580E-002,4.288580E-002,4.288580E-002,4.288580E-002,4.288580E-002,4.288580E-002,4.288580E-002,4.288580E-002,4.288580E-002,4.288580E-002,
   **   ~~~   ** Supply-to-demand interface deck 1 mass flow rate check value iteration history trace: 4.288580E-002,4.288580E-002,4.288580E-002,4.288580E-002,4.288580E-002,4.288580E-002,4.288580E-002,4.288580E-002,4.288580E-002,4.288580E-002,
   **   ~~~   ** Air System Named = CENTRAL SYSTEM did not converge for energy
   **   ~~~   ** Check values should be zero. Most Recent values listed first.
   **   ~~~   ** Demand-to-Supply interface energy check value iteration history trace: 801.430842,801.430842,801.430841,801.430841,801.430841,801.430841,801.430841,801.430841,801.430841,801.430841,
   **   ~~~   ** Supply-to-demand interface deck 1 energy check value iteration history trace: 1454.325674,1454.325674,1454.325674,1454.325674,1454.325674,1454.325674,1454.325674,1454.325674,1454.325674,1454.325674,
   ** Warning ** SimHVAC: Maximum iterations (20) exceeded for all HVAC loops, at ANNUAL, 05/02 10:40 - 10:45
   **   ~~~   ** The solution for one or more of the Air Loop HVAC systems did not appear to converge
   **   ~~~   ** Air System Named = CENTRAL SYSTEM did not converge for mass flow rate
   **   ~~~   ** Check values should be zero. Most Recent values listed first.
   **   ~~~   ** Demand-to-Supply interface mass flow rate check value iteration history trace: 6.317592E-002,6.317592E-002,6.317592E-002,6.317592E-002,6.317592E-002,6.317592E-002,6.317592E-002,6.317592E-002,6.317592E-002,6.317592E-002,
   **   ~~~   ** Supply-to-demand interface deck 1 mass flow rate check value iteration history trace: 6.317592E-002,6.317592E-002,6.317592E-002,6.317592E-002,6.317592E-002,6.317592E-002,6.317592E-002,6.317592E-002,6.317592E-002,6.317592E-002,
   **   ~~~   ** Air System Named = CENTRAL SYSTEM did not converge for energy
   **   ~~~   ** Check values should be zero. Most Recent values listed first.
   **   ~~~   ** Demand-to-Supply interface energy check value iteration history trace: 1248.177576,1248.177576,1248.177576,1248.177576,1248.177576,1248.177576,1248.177576,1248.177576,1248.177576,1248.177575,
   **   ~~~   ** Supply-to-demand interface deck 1 energy check value iteration history trace: 2208.094071,2208.094070,2208.094070,2208.094070,2208.094070,2208.094070,2208.094070,2208.094070,2208.094070,2208.094070,
   ** Warning ** SimHVAC: Maximum iterations (20) exceeded for all HVAC loops, at ANNUAL, 05/29 05:08 - 05:15
   **   ~~~   ** The solution for one or more of the Air Loop HVAC systems did not appear to converge
   **   ~~~   ** Air System Named = CENTRAL SYSTEM did not converge for mass flow rate
   **   ~~~   ** Check values should be zero. Most Recent values listed first.
   **   ~~~   ** Demand-to-Supply interface mass flow rate check value iteration history trace: 3.265559E-002,3.265559E-002,3.265559E-002,3.265559E-002,3.265559E-002,3.265559E-002,3.265559E-002,3.265559E-002,3.265559E-002,3.265559E-002,
   **   ~~~   ** Supply-to-demand interface deck 1 mass flow rate check value iteration history trace: 3.265559E-002,3.265559E-002,3.265559E-002,3.265559E-002,3.265559E-002,3.265559E-002,3.265559E-002,3.265559E-002,3.265559E-002,3.265559E-002,
   **   ~~~   ** Air System Named = CENTRAL SYSTEM did not converge for energy
   **   ~~~   ** Check values should be zero. Most Recent values listed first.
   **   ~~~   ** Demand-to-Supply interface energy check value iteration history trace: 781.114520,781.114520,781.114521,781.114521,781.114521,781.114521,781.114522,781.114522,781.114522,781.114522,
   **   ~~~   ** Supply-to-demand interface deck 1 energy check value iteration history trace: 419.515060,419.515060,419.515060,419.515060,419.515060,419.515061,419.515061,419.515061,419.515061,419.515061,
   ** Warning ** SimHVAC: Maximum iterations (20) exceeded for all HVAC loops, at ANNUAL, 10/09 09:45 - 09:48
   **   ~~~   ** The solution for one or more of the Air Loop HVAC systems did not appear to converge
   **   ~~~   ** Air System Named = CENTRAL SYSTEM did not converge for mass flow rate
   **   ~~~   ** Check values should be zero. Most Recent values listed first.
   **   ~~~   ** Demand-to-Supply interface mass flow rate check value iteration history trace: 6.320177E-002,6.320177E-002,6.320177E-002,6.320177E-002,6.320177E-002,6.320177E-002,6.320177E-002,6.320177E-002,6.320177E-002,6.320177E-002,
   **   ~~~   ** Supply-to-demand interface deck 1 mass flow rate check value iteration history trace: 6.320177E-002,6.320177E-002,6.320177E-002,6.320177E-002,6.320177E-002,6.320177E-002,6.320177E-002,6.320177E-002,6.320177E-002,6.320177E-002,
   **   ~~~   ** Air System Named = CENTRAL SYSTEM did not converge for energy
   **   ~~~   ** Check values should be zero. Most Recent values listed first.
   **   ~~~   ** Demand-to-Supply interface energy check value iteration history trace: 1252.467581,1252.467581,1252.467581,1252.467581,1252.467581,1252.467580,1252.467580,1252.467580,1252.467580,1252.467580,
   **   ~~~   ** Supply-to-demand interface deck 1 energy check value iteration history trace: 2126.614363,2126.614363,2126.614363,2126.614363,2126.614363,2126.614363,2126.614363,2126.614363,2126.614363,2126.614362,
   ** Warning ** SimHVAC: Maximum iterations (20) exceeded for all HVAC loops, at ANNUAL, 10/28 18:45 - 18:52
   **   ~~~   ** The solution for one or more of the Air Loop HVAC systems did not appear to converge
   **   ~~~   ** Air System Named = CENTRAL SYSTEM did not converge for mass flow rate
   **   ~~~   ** Check values should be zero. Most Recent values listed first.
   **   ~~~   ** Demand-to-Supply interface mass flow rate check value iteration history trace: 6.381369E-002,6.381369E-002,6.381369E-002,6.381369E-002,6.381369E-002,6.381369E-002,6.381369E-002,6.381369E-002,6.381369E-002,6.381369E-002,
   **   ~~~   ** Supply-to-demand interface deck 1 mass flow rate check value iteration history trace: 6.381369E-002,6.381369E-002,6.381369E-002,6.381369E-002,6.381369E-002,6.381369E-002,6.381369E-002,6.381369E-002,6.381369E-002,6.381369E-002,
   **   ~~~   ** Air System Named = CENTRAL SYSTEM did not converge for energy
   **   ~~~   ** Check values should be zero. Most Recent values listed first.
   **   ~~~   ** Demand-to-Supply interface energy check value iteration history trace: 1264.878397,1264.878397,1264.878396,1264.878396,1264.878396,1264.878396,1264.878396,1264.878396,1264.878396,1264.878396,
   **   ~~~   ** Supply-to-demand interface deck 1 energy check value iteration history trace: 2186.276069,2186.276069,2186.276069,2186.276069,2186.276069,2186.276069,2186.276068,2186.276068,2186.276068,2186.276068,
   ** Warning ** SimHVAC: Maximum iterations (20) exceeded for all HVAC loops, at ANNUAL, 11/12 13:45 - 14:00
   **   ~~~   ** The solution for one or more of the Air Loop HVAC systems did not appear to converge
   **   ~~~   ** Air System Named = CENTRAL SYSTEM did not converge for mass flow rate
   **   ~~~   ** Check values should be zero. Most Recent values listed first.
   **   ~~~   ** Demand-to-Supply interface mass flow rate check value iteration history trace: 6.721508E-002,6.721508E-002,6.721508E-002,6.721508E-002,6.721508E-002,6.721508E-002,6.721508E-002,6.721508E-002,6.721508E-002,6.721508E-002,
   **   ~~~   ** Supply-to-demand interface deck 1 mass flow rate check value iteration history trace: 6.721508E-002,6.721508E-002,6.721508E-002,6.721508E-002,6.721508E-002,6.721508E-002,6.721508E-002,6.721508E-002,6.721508E-002,6.721508E-002,
   **   ~~~   ** Air System Named = CENTRAL SYSTEM did not converge for energy
   **   ~~~   ** Check values should be zero. Most Recent values listed first.
   **   ~~~   ** Demand-to-Supply interface energy check value iteration history trace: 1331.975948,1331.975948,1331.975947,1331.975947,1331.975947,1331.975947,1331.975947,1331.975947,1331.975947,1331.975947,
   **   ~~~   ** Supply-to-demand interface deck 1 energy check value iteration history trace: 2264.396627,2264.396627,2264.396627,2264.396626,2264.396626,2264.396626,2264.396626,2264.396626,2264.396626,2264.396626,
   ************* Simulation Error Summary *************
   ** Warning ** The following Report Variables were requested but not generated -- check.rdd file
   **   ~~~   ** Either the IDF did not contain these elements, the variable name is misspelled,
   **   ~~~   ** or the requested variable is an advanced output which requires Output : Diagnostics, DisplayAdvancedReportVariables;
   ************* Key=*, VarName=BASEBOARD TOTAL HEATING ENERGY, Frequency=
   ************* Key=*, VarName=WATER HEATER NATURALGAS ENERGY, Frequency=
   ************* Key=*, VarName=COOLING COIL TOTAL HEATING ENERGY, Frequency=
   ************* There are 34 unused schedules in input.
   ************* There are 388 unused week schedules in input.
   ************* There are 397 unused day schedules in input.
   ************* Use Output:Diagnostics,DisplayUnusedSchedules; to see them.
   *************
   ************* ===== Recurring Error Summary =====
   ************* The following recurring error messages occurred.
   *************
   *************  ** Warning ** "TOTAL HOT WATER LOAD" - Target water temperature should be less than or equal to the hot water temperature error continues...
   *************  **   ~~~   **   This error occurred 93041 total times;
   *************  **   ~~~   **   during Warmup 0 times;
   *************  **   ~~~   **   during Sizing 0 times.
   *************  **   ~~~   **   Max=9.698329  Min=1.043493E-003
   *************
   *************  ** Warning ** Temperature out of range [-100. to 200.] (PsyPsatFnTemp)
   *************  **   ~~~   **   This error occurred 1 total times;
   *************  **   ~~~   **   during Warmup 0 times;
   *************  **   ~~~   **   during Sizing 0 times.
   *************  **   ~~~   **   Max=-138.125969 C  Min=-138.125969 C
   *************
   *************
   ************* ===== Final Error Summary =====
   ************* The following error categories occurred.  Consider correcting or noting.
   ************* Loads Initialization did not Converge
   ************* ..1) very high thermal mass such as very thick concrete (solution: increase max number of warmup
   ************* ..   days in the BUILDING object);
   ************* ..2) moderate mass and inadequate space conditioning such that the building keeps getting warmer
   ************* ..   and warmer on successive days (solution: add HVAC, check building thermal properties,
   ************* ..   check if infiltration is included, make sure HVAC properly controlled);
   ************* ..3) a soil layer modeled below the concrete slab - (solution remove this layer and read about
   ************* ..   ground temperatures in the Auxiliary Programs document).
   ************* ..4) unreasonable (too small) limits in the BUILDING object for temperature (.4 default) or
   ************* ..   loads tolerances (.04 default)
   ************* Nominally Unused Constructions
   ************* ..The nominally unused constructions warning is provided to alert you to potential conditions that can cause
   ************* ..extra time during simulation. Each construction is calculated by the algorithm indicated in the HeatBalanceAlgorithm
   ************* ..object. You may remove the constructions indicated (when you use the DisplayExtraWarnings option).
   *************
   ************* EnergyPlus Warmup Error Summary. During Warmup: 1 Warning; 2 Severe Errors.
   ************* EnergyPlus Sizing Error Summary. During Sizing: 4 Warning; 0 Severe Errors.
   ************* EnergyPlus Completed Successfully-- 93074 Warning; 2 Severe Errors; Elapsed Time=00hr 01min 32.51sec
