Program Version,EnergyPlus, Version 22.2.0-c249759bad, YMD=2023.09.01 19:43,
   ************* Beginning Zone Sizing Calculations
   ** Warning ** ProcessScheduleInput: Schedule:Constant="ALWAYS ON DISCRETE", Schedule Type Limits Name="ONOFF" not found -- will not be validated
   ** Warning ** Foundation:Kiva="KIVA FOUNDATION", no Interior Horizontal Insulation Material Name defined
   **   ~~~   ** Interior Horizontal Insulation Depth will not be used.
   ** Warning ** CheckUsedConstructions: There are 15 nominally unused constructions in input.
   **   ~~~   ** Each Unused construction is shown.
   ************* Construction=INTERIOR FLOOR
   ************* Construction=INTERIOR WINDOW
   ************* Construction=EXTERIOR DOOR
   ************* Construction=INTERIOR DOOR
   ************* Construction=GABLE CONSTRUCTION
   ************* Construction=CRAWL_FLOOR
   ************* Construction=INSULATED PIPE
   ************* Construction=PLAIN PIPE
   ************* Construction=TDD PIPE
   ************* Construction=TDD DOME
   ************* Construction=TDD DIFFUSER
   ************* Construction=CRAWL WALL
   ************* Construction=CEILING-FLOOR-LAYER
   ************* Construction=SLAB CONSTRUCTION W FULL R10 INSULATION
   ************* Construction=SLAB CONSTRUCTION W FULL R5 INSULATION
   ** Warning ** GetDXCoils: Coil:Heating:DX:SingleSpeed="DX_HEATING_COIL" curve values
   **   ~~~   ** ... Defrost Energy Input Ratio Function of Temperature Curve Name = DEFROSTEIR output is not equal to 1.0 (+ or - 10%) at rated conditions.
   **   ~~~   ** ... Curve output at rated conditions = 0.152
   ************* Beginning System Sizing Calculations
   ************* Beginning Plant Sizing Calculations
   ** Warning ** Coil:WaterHeating:AirToWaterHeatPump:Wrapped "HEAT PUMP WATER HEATER EVAPORATOR": Rated air volume flow rate per watt of rated total water heating capacity is out of range
   **   ~~~   ** Min Rated Vol Flow Per Watt=[4.027E-005], Rated Vol Flow Per Watt=[1.510E-004], Max Rated Vol Flow Per Watt=[8.056E-005]. See Input-Output Reference Manual for valid range.
   ************* SizeFan: : Potential issue with equipment sizing for Fan:OnOff HEAT PUMP WATER HEATER FAN
   **   ~~~   ** User-Specified Maximum Flow Rate [m3/s] = 0.22653
   **   ~~~   ** differs from Design Size Maximum Flow Rate [m3/s] = 7.55250E-002
   **   ~~~   ** This may, or may not, indicate mismatched component sizes.
   **   ~~~   ** Verify that the value entered is intended and is consistent with other components.
   ** Warning ** Water heater = WATER HEATER TANK:  Recovery Efficiency and Energy Factor could not be calculated during the test for standard ratings
   **   ~~~   ** Setpoint was never recovered and/or heater never turned on
   ** Warning ** Check input. Pump nominal power or motor efficiency is set to 0, for pump=MAINS PRESSURE
   ** Warning ** Output:Meter: invalid Key Name="ELECTRIC_RANGE:INTERIOREQUIPMENT:ELECTRICITY" - not found.
   ** Warning ** Output:Meter: invalid Key Name="ELECTRIC_DRYER:INTERIOREQUIPMENT:ELECTRICITY" - not found.
   ** Warning ** Output:Meter: invalid Key Name="HEATRECOVERY:ELECTRICITY" - not found.
   ** Warning ** Output:Meter: invalid Key Name="HEATING:NATURALGAS" - not found.
   ** Warning ** Output:Meter: invalid Key Name="WATERSYSTEMS:NATURALGAS" - not found.
   ** Warning ** Output:Meter: invalid Key Name="PROPANE:FACILITY" - not found.
   ** Warning ** Output:Meter: invalid Key Name="HEATING:PROPANE" - not found.
   ************* Testing Individual Branch Integrity
   ************* All Branches passed integrity testing
   ************* Testing Individual Supply Air Path Integrity
   ************* All Supply Air Paths passed integrity testing
   ************* Testing Individual Return Air Path Integrity
   ************* All Return Air Paths passed integrity testing
   ************* No node connection errors were found.
   ************* Beginning Simulation
   ** Warning ** AirflowNetwork::Solver::validate_distribution: Heat pump water heater is simulated along with an AirflowNetwork but is not included in the AirflowNetwork.
   ** Warning ** CalcEquipmentFlowRates: "TOTAL HOT WATER LOAD" - Target water temperature is greater than the hot water temperature by (3.47 C)
   **   ~~~   **  Environment=EXTREME_WINTER, at Simulation time=01/08 06:00 - 06:15
   **   ~~~   ** ...target water temperature     = 53.33 C
   **   ~~~   ** ...hot water temperature        = 49.86 C
   **   ~~~   ** ...Target water temperature should be less than or equal to the hot water temperature. Verify temperature setpoints and schedules.
   ** Warning ** SimHVAC: Maximum iterations (20) exceeded for all HVAC loops, at ANNUAL, 02/13 11:38 - 11:45
   **   ~~~   ** The solution for one or more of the Air Loop HVAC systems did not appear to converge
   **   ~~~   ** Air System Named = CENTRAL SYSTEM did not converge for mass flow rate
   **   ~~~   ** Check values should be zero. Most Recent values listed first.
   **   ~~~   ** Demand-to-Supply interface mass flow rate check value iteration history trace: 6.531311E-002,6.531311E-002,6.531311E-002,6.531311E-002,6.531311E-002,6.531311E-002,6.531311E-002,6.531311E-002,6.531311E-002,6.531311E-002,
   **   ~~~   ** Supply-to-demand interface deck 1 mass flow rate check value iteration history trace: 6.531311E-002,6.531311E-002,6.531311E-002,6.531311E-002,6.531311E-002,6.531311E-002,6.531311E-002,6.531311E-002,6.531311E-002,6.531311E-002,
   **   ~~~   ** Air System Named = CENTRAL SYSTEM did not converge for energy
   **   ~~~   ** Check values should be zero. Most Recent values listed first.
   **   ~~~   ** Demand-to-Supply interface energy check value iteration history trace: 1288.320508,1288.320508,1288.320508,1288.320508,1288.320508,1288.320508,1288.320508,1288.320508,1288.320508,1288.320508,
   **   ~~~   ** Supply-to-demand interface deck 1 energy check value iteration history trace: 2051.939144,2051.939144,2051.939143,2051.939143,2051.939143,2051.939143,2051.939143,2051.939143,2051.939143,2051.939143,
   ** Warning ** SimHVAC: Maximum iterations (20) exceeded for all HVAC loops, at ANNUAL, 02/14 14:15 - 14:30
   **   ~~~   ** The solution for one or more of the Air Loop HVAC systems did not appear to converge
   **   ~~~   ** Air System Named = CENTRAL SYSTEM did not converge for mass flow rate
   **   ~~~   ** Check values should be zero. Most Recent values listed first.
   **   ~~~   ** Demand-to-Supply interface mass flow rate check value iteration history trace: 7.639742E-002,7.639742E-002,7.639742E-002,7.639742E-002,7.639742E-002,7.639742E-002,7.639742E-002,7.639742E-002,7.639742E-002,7.639742E-002,
   **   ~~~   ** Supply-to-demand interface deck 1 mass flow rate check value iteration history trace: 7.639742E-002,7.639742E-002,7.639742E-002,7.639742E-002,7.639742E-002,7.639742E-002,7.639742E-002,7.639742E-002,7.639742E-002,7.639742E-002,
   **   ~~~   ** Air System Named = CENTRAL SYSTEM did not converge for energy
   **   ~~~   ** Check values should be zero. Most Recent values listed first.
   **   ~~~   ** Demand-to-Supply interface energy check value iteration history trace: 1481.773811,1481.773811,1481.773811,1481.773811,1481.773811,1481.773811,1481.773811,1481.773811,1481.773811,1481.773810,
   **   ~~~   ** Supply-to-demand interface deck 1 energy check value iteration history trace: 2373.153013,2373.153013,2373.153013,2373.153012,2373.153012,2373.153012,2373.153012,2373.153012,2373.153012,2373.153012,
   ** Warning ** SimHVAC: Maximum iterations (20) exceeded for all HVAC loops, at ANNUAL, 02/26 17:45 - 18:00
   **   ~~~   ** The solution for one or more of the Air Loop HVAC systems did not appear to converge
   **   ~~~   ** Air System Named = CENTRAL SYSTEM did not converge for mass flow rate
   **   ~~~   ** Check values should be zero. Most Recent values listed first.
   **   ~~~   ** Demand-to-Supply interface mass flow rate check value iteration history trace: 9.934462E-002,9.934462E-002,9.934462E-002,9.934462E-002,9.934462E-002,9.934462E-002,9.934462E-002,9.934462E-002,9.934462E-002,9.934462E-002,
   **   ~~~   ** Supply-to-demand interface deck 1 mass flow rate check value iteration history trace: 9.934462E-002,9.934462E-002,9.934462E-002,9.934462E-002,9.934462E-002,9.934462E-002,9.934462E-002,9.934462E-002,9.934462E-002,9.934462E-002,
   **   ~~~   ** Air System Named = CENTRAL SYSTEM did not converge for energy
   **   ~~~   ** Check values should be zero. Most Recent values listed first.
   **   ~~~   ** Demand-to-Supply interface energy check value iteration history trace: 1977.886401,1977.886401,1977.886401,1977.886401,1977.886400,1977.886400,1977.886400,1977.886400,1977.886400,1977.886400,
   **   ~~~   ** Supply-to-demand interface deck 1 energy check value iteration history trace: 3039.520574,3039.520574,3039.520574,3039.520573,3039.520573,3039.520573,3039.520573,3039.520573,3039.520572,3039.520572,
   ** Warning ** SimHVAC: Maximum iterations (20) exceeded for all HVAC loops, at ANNUAL, 03/01 11:19 - 11:22
   **   ~~~   ** The solution for one or more of the Air Loop HVAC systems did not appear to converge
   **   ~~~   ** Air System Named = CENTRAL SYSTEM did not converge for mass flow rate
   **   ~~~   ** Check values should be zero. Most Recent values listed first.
   **   ~~~   ** Demand-to-Supply interface mass flow rate check value iteration history trace: 5.965870E-002,5.965870E-002,5.965870E-002,5.965870E-002,5.965870E-002,5.965870E-002,5.965870E-002,5.965870E-002,5.965870E-002,5.965870E-002,
   **   ~~~   ** Supply-to-demand interface deck 1 mass flow rate check value iteration history trace: 5.965870E-002,5.965870E-002,5.965870E-002,5.965870E-002,5.965870E-002,5.965870E-002,5.965870E-002,5.965870E-002,5.965870E-002,5.965870E-002,
   **   ~~~   ** Air System Named = CENTRAL SYSTEM did not converge for energy
   **   ~~~   ** Check values should be zero. Most Recent values listed first.
   **   ~~~   ** Demand-to-Supply interface energy check value iteration history trace: 1182.279552,1182.279551,1182.279551,1182.279551,1182.279551,1182.279550,1182.279550,1182.279550,1182.279550,1182.279549,
   **   ~~~   ** Supply-to-demand interface deck 1 energy check value iteration history trace: 1849.414183,1849.414183,1849.414182,1849.414182,1849.414181,1849.414181,1849.414181,1849.414180,1849.414180,1849.414180,
   ** Warning ** SimHVAC: Maximum iterations (20) exceeded for all HVAC loops, at ANNUAL, 03/25 09:15 - 09:17
   **   ~~~   ** The solution for one or more of the Air Loop HVAC systems did not appear to converge
   **   ~~~   ** Air System Named = CENTRAL SYSTEM did not converge for mass flow rate
   **   ~~~   ** Check values should be zero. Most Recent values listed first.
   **   ~~~   ** Demand-to-Supply interface mass flow rate check value iteration history trace: 9.758980E-002,9.758980E-002,9.758980E-002,9.758980E-002,9.758980E-002,9.758980E-002,9.758980E-002,9.758980E-002,9.758980E-002,9.758980E-002,
   **   ~~~   ** Supply-to-demand interface deck 1 mass flow rate check value iteration history trace: 9.758980E-002,9.758980E-002,9.758980E-002,9.758980E-002,9.758980E-002,9.758980E-002,9.758980E-002,9.758980E-002,9.758980E-002,9.758980E-002,
   **   ~~~   ** Air System Named = CENTRAL SYSTEM did not converge for energy
   **   ~~~   ** Check values should be zero. Most Recent values listed first.
   **   ~~~   ** Demand-to-Supply interface energy check value iteration history trace: 1933.869697,1933.869697,1933.869697,1933.869697,1933.869696,1933.869696,1933.869696,1933.869696,1933.869696,1933.869696,
   **   ~~~   ** Supply-to-demand interface deck 1 energy check value iteration history trace: 3007.935254,3007.935254,3007.935253,3007.935253,3007.935253,3007.935253,3007.935253,3007.935252,3007.935252,3007.935252,
   ** Warning ** SimHVAC: Maximum iterations (20) exceeded for all HVAC loops, at ANNUAL, 03/25 10:15 - 10:17
   **   ~~~   ** The solution for one or more of the Air Loop HVAC systems did not appear to converge
   **   ~~~   ** Air System Named = CENTRAL SYSTEM did not converge for mass flow rate
   **   ~~~   ** Check values should be zero. Most Recent values listed first.
   **   ~~~   ** Demand-to-Supply interface mass flow rate check value iteration history trace: 8.342614E-002,8.342614E-002,8.342614E-002,8.342614E-002,8.342614E-002,8.342614E-002,8.342614E-002,8.342614E-002,8.342614E-002,8.342614E-002,
   **   ~~~   ** Supply-to-demand interface deck 1 mass flow rate check value iteration history trace: 8.342614E-002,8.342614E-002,8.342614E-002,8.342614E-002,8.342614E-002,8.342614E-002,8.342614E-002,8.342614E-002,8.342614E-002,8.342614E-002,
   **   ~~~   ** Air System Named = CENTRAL SYSTEM did not converge for energy
   **   ~~~   ** Check values should be zero. Most Recent values listed first.
   **   ~~~   ** Demand-to-Supply interface energy check value iteration history trace: 1648.007555,1648.007555,1648.007555,1648.007555,1648.007555,1648.007555,1648.007554,1648.007554,1648.007554,1648.007554,
   **   ~~~   ** Supply-to-demand interface deck 1 energy check value iteration history trace: 2592.541514,2592.541514,2592.541513,2592.541513,2592.541513,2592.541513,2592.541513,2592.541513,2592.541512,2592.541512,
   ** Warning ** SimHVAC: Maximum iterations (20) exceeded for all HVAC loops, at ANNUAL, 03/26 20:30 - 20:35
   **   ~~~   ** The solution for one or more of the Air Loop HVAC systems did not appear to converge
   **   ~~~   ** Air System Named = CENTRAL SYSTEM did not converge for mass flow rate
   **   ~~~   ** Check values should be zero. Most Recent values listed first.
   **   ~~~   ** Demand-to-Supply interface mass flow rate check value iteration history trace: 7.204573E-002,7.204573E-002,7.204573E-002,7.204573E-002,7.204573E-002,7.204573E-002,7.204573E-002,7.204573E-002,7.204573E-002,7.204573E-002,
   **   ~~~   ** Supply-to-demand interface deck 1 mass flow rate check value iteration history trace: 7.204573E-002,7.204573E-002,7.204573E-002,7.204573E-002,7.204573E-002,7.204573E-002,7.204573E-002,7.204573E-002,7.204573E-002,7.204573E-002,
   **   ~~~   ** Air System Named = CENTRAL SYSTEM did not converge for energy
   **   ~~~   ** Check values should be zero. Most Recent values listed first.
   **   ~~~   ** Demand-to-Supply interface energy check value iteration history trace: 1425.799048,1425.799047,1425.799047,1425.799047,1425.799047,1425.799047,1425.799047,1425.799047,1425.799047,1425.799047,
   **   ~~~   ** Supply-to-demand interface deck 1 energy check value iteration history trace: 2189.980813,2189.980813,2189.980813,2189.980813,2189.980812,2189.980812,2189.980812,2189.980812,2189.980812,2189.980812,
   ** Warning ** SimHVAC: Maximum iterations (20) exceeded for all HVAC loops, at ANNUAL, 03/27 10:45 - 11:00
   **   ~~~   ** The solution for one or more of the Air Loop HVAC systems did not appear to converge
   **   ~~~   ** Air System Named = CENTRAL SYSTEM did not converge for mass flow rate
   **   ~~~   ** Check values should be zero. Most Recent values listed first.
   **   ~~~   ** Demand-to-Supply interface mass flow rate check value iteration history trace: 7.219180E-002,7.219180E-002,7.219180E-002,7.219180E-002,7.219180E-002,7.219180E-002,7.219180E-002,7.219180E-002,7.219180E-002,7.219180E-002,
   **   ~~~   ** Supply-to-demand interface deck 1 mass flow rate check value iteration history trace: 7.219180E-002,7.219180E-002,7.219180E-002,7.219180E-002,7.219180E-002,7.219180E-002,7.219180E-002,7.219180E-002,7.219180E-002,7.219180E-002,
   **   ~~~   ** Air System Named = CENTRAL SYSTEM did not converge for energy
   **   ~~~   ** Check values should be zero. Most Recent values listed first.
   **   ~~~   ** Demand-to-Supply interface energy check value iteration history trace: 1430.619342,1430.619342,1430.619342,1430.619342,1430.619342,1430.619342,1430.619342,1430.619341,1430.619341,1430.619341,
   **   ~~~   ** Supply-to-demand interface deck 1 energy check value iteration history trace: 2242.654593,2242.654593,2242.654593,2242.654592,2242.654592,2242.654592,2242.654592,2242.654592,2242.654592,2242.654592,
   ** Warning ** SimHVAC: Maximum iterations (20) exceeded for all HVAC loops, at ANNUAL, 03/29 00:00 - 00:15
   **   ~~~   ** The solution for one or more of the Air Loop HVAC systems did not appear to converge
   **   ~~~   ** Air System Named = CENTRAL SYSTEM did not converge for mass flow rate
   **   ~~~   ** Check values should be zero. Most Recent values listed first.
   **   ~~~   ** Demand-to-Supply interface mass flow rate check value iteration history trace: 6.830335E-002,6.830335E-002,6.830335E-002,6.830335E-002,6.830335E-002,6.830335E-002,6.830335E-002,6.830335E-002,6.830335E-002,6.830335E-002,
   **   ~~~   ** Supply-to-demand interface deck 1 mass flow rate check value iteration history trace: 6.830335E-002,6.830335E-002,6.830335E-002,6.830335E-002,6.830335E-002,6.830335E-002,6.830335E-002,6.830335E-002,6.830335E-002,6.830335E-002,
   **   ~~~   ** Air System Named = CENTRAL SYSTEM did not converge for energy
   **   ~~~   ** Check values should be zero. Most Recent values listed first.
   **   ~~~   ** Demand-to-Supply interface energy check value iteration history trace: 1275.699880,1275.699880,1275.699880,1275.699880,1275.699880,1275.699880,1275.699880,1275.699880,1275.699880,1275.699880,
   **   ~~~   ** Supply-to-demand interface deck 1 energy check value iteration history trace: 2003.061427,2003.061427,2003.061427,2003.061426,2003.061426,2003.061426,2003.061426,2003.061426,2003.061426,2003.061426,
   ** Warning ** SimHVAC: Maximum iterations (20) exceeded for all HVAC loops, at ANNUAL, 04/05 17:00 - 17:15
   **   ~~~   ** The solution for one or more of the Air Loop HVAC systems did not appear to converge
   **   ~~~   ** Air System Named = CENTRAL SYSTEM did not converge for mass flow rate
   **   ~~~   ** Check values should be zero. Most Recent values listed first.
   **   ~~~   ** Demand-to-Supply interface mass flow rate check value iteration history trace: 6.676982E-002,6.676982E-002,6.676982E-002,6.676982E-002,6.676982E-002,6.676982E-002,6.676982E-002,6.676982E-002,6.676982E-002,6.676982E-002,
   **   ~~~   ** Supply-to-demand interface deck 1 mass flow rate check value iteration history trace: 6.676982E-002,6.676982E-002,6.676982E-002,6.676982E-002,6.676982E-002,6.676982E-002,6.676982E-002,6.676982E-002,6.676982E-002,6.676982E-002,
   **   ~~~   ** Air System Named = CENTRAL SYSTEM did not converge for energy
   **   ~~~   ** Check values should be zero. Most Recent values listed first.
   **   ~~~   ** Demand-to-Supply interface energy check value iteration history trace: 1323.151610,1323.151610,1323.151610,1323.151610,1323.151610,1323.151610,1323.151609,1323.151609,1323.151609,1323.151609,
   **   ~~~   ** Supply-to-demand interface deck 1 energy check value iteration history trace: 2276.594810,2276.594810,2276.594810,2276.594810,2276.594810,2276.594810,2276.594810,2276.594810,2276.594810,2276.594809,
   ** Warning ** SimHVAC: Maximum iterations (20) exceeded for all HVAC loops, at ANNUAL, 04/17 07:48 - 07:50
   **   ~~~   ** The solution for one or more of the Air Loop HVAC systems did not appear to converge
   **   ~~~   ** Air System Named = CENTRAL SYSTEM did not converge for mass flow rate
   **   ~~~   ** Check values should be zero. Most Recent values listed first.
   **   ~~~   ** Demand-to-Supply interface mass flow rate check value iteration history trace: 7.953049E-002,7.953049E-002,7.953049E-002,7.953049E-002,7.953049E-002,7.953049E-002,7.953049E-002,7.953049E-002,7.953049E-002,7.953049E-002,
   **   ~~~   ** Supply-to-demand interface deck 1 mass flow rate check value iteration history trace: 7.953049E-002,7.953049E-002,7.953049E-002,7.953049E-002,7.953049E-002,7.953049E-002,7.953049E-002,7.953049E-002,7.953049E-002,7.953049E-002,
   **   ~~~   ** Air System Named = CENTRAL SYSTEM did not converge for energy
   **   ~~~   ** Check values should be zero. Most Recent values listed first.
   **   ~~~   ** Demand-to-Supply interface energy check value iteration history trace: 1573.967853,1573.967853,1573.967853,1573.967853,1573.967853,1573.967853,1573.967852,1573.967852,1573.967852,1573.967852,
   **   ~~~   ** Supply-to-demand interface deck 1 energy check value iteration history trace: 2707.731043,2707.731043,2707.731042,2707.731042,2707.731042,2707.731042,2707.731042,2707.731042,2707.731042,2707.731042,
   ** Warning ** SimHVAC: Maximum iterations (20) exceeded for all HVAC loops, at ANNUAL, 04/28 07:15 - 07:30
   **   ~~~   ** The solution for one or more of the Air Loop HVAC systems did not appear to converge
   **   ~~~   ** Air System Named = CENTRAL SYSTEM did not converge for mass flow rate
   **   ~~~   ** Check values should be zero. Most Recent values listed first.
   **   ~~~   ** Demand-to-Supply interface mass flow rate check value iteration history trace: 6.101146E-002,6.101146E-002,6.101146E-002,6.101146E-002,6.101146E-002,6.101146E-002,6.101146E-002,6.101146E-002,6.101146E-002,6.101146E-002,
   **   ~~~   ** Supply-to-demand interface deck 1 mass flow rate check value iteration history trace: 6.101146E-002,6.101146E-002,6.101146E-002,6.101146E-002,6.101146E-002,6.101146E-002,6.101146E-002,6.101146E-002,6.101146E-002,6.101146E-002,
   **   ~~~   ** Air System Named = CENTRAL SYSTEM did not converge for energy
   **   ~~~   ** Check values should be zero. Most Recent values listed first.
   **   ~~~   ** Demand-to-Supply interface energy check value iteration history trace: 1207.699814,1207.699814,1207.699814,1207.699814,1207.699814,1207.699814,1207.699814,1207.699814,1207.699813,1207.699813,
   **   ~~~   ** Supply-to-demand interface deck 1 energy check value iteration history trace: 2104.805928,2104.805927,2104.805927,2104.805927,2104.805927,2104.805927,2104.805927,2104.805927,2104.805927,2104.805927,
   ** Warning ** SimHVAC: Maximum iterations (20) exceeded for all HVAC loops, at ANNUAL, 04/30 07:53 - 08:00
   **   ~~~   ** The solution for one or more of the Air Loop HVAC systems did not appear to converge
   **   ~~~   ** Air System Named = CENTRAL SYSTEM did not converge for mass flow rate
   **   ~~~   ** Check values should be zero. Most Recent values listed first.
   **   ~~~   ** Demand-to-Supply interface mass flow rate check value iteration history trace: 5.301990E-002,5.301990E-002,5.301990E-002,5.301990E-002,5.301990E-002,5.301990E-002,5.301990E-002,5.301990E-002,5.301990E-002,5.301990E-002,
   **   ~~~   ** Supply-to-demand interface deck 1 mass flow rate check value iteration history trace: 5.301990E-002,5.301990E-002,5.301990E-002,5.301990E-002,5.301990E-002,5.301990E-002,5.301990E-002,5.301990E-002,5.301990E-002,5.301990E-002,
   **   ~~~   ** Air System Named = CENTRAL SYSTEM did not converge for energy
   **   ~~~   ** Check values should be zero. Most Recent values listed first.
   **   ~~~   ** Demand-to-Supply interface energy check value iteration history trace: 1050.631335,1050.631335,1050.631335,1050.631335,1050.631335,1050.631334,1050.631334,1050.631334,1050.631334,1050.631334,
   **   ~~~   ** Supply-to-demand interface deck 1 energy check value iteration history trace: 1830.891868,1830.891868,1830.891868,1830.891868,1830.891868,1830.891868,1830.891868,1830.891868,1830.891868,1830.891868,
   ** Warning ** SimHVAC: Maximum iterations (20) exceeded for all HVAC loops, at ANNUAL, 05/09 06:30 - 06:45
   **   ~~~   ** The solution for one or more of the Air Loop HVAC systems did not appear to converge
   **   ~~~   ** Air System Named = CENTRAL SYSTEM did not converge for mass flow rate
   **   ~~~   ** Check values should be zero. Most Recent values listed first.
   **   ~~~   ** Demand-to-Supply interface mass flow rate check value iteration history trace: 5.176779E-002,5.176779E-002,5.176779E-002,5.176779E-002,5.176779E-002,5.176779E-002,5.176779E-002,5.176779E-002,5.176779E-002,5.176779E-002,
   **   ~~~   ** Supply-to-demand interface deck 1 mass flow rate check value iteration history trace: 5.176779E-002,5.176779E-002,5.176779E-002,5.176779E-002,5.176779E-002,5.176779E-002,5.176779E-002,5.176779E-002,5.176779E-002,5.176779E-002,
   **   ~~~   ** Air System Named = CENTRAL SYSTEM did not converge for energy
   **   ~~~   ** Check values should be zero. Most Recent values listed first.
   **   ~~~   ** Demand-to-Supply interface energy check value iteration history trace: 1012.091082,1012.091082,1012.091082,1012.091081,1012.091081,1012.091081,1012.091081,1012.091081,1012.091081,1012.091081,
   **   ~~~   ** Supply-to-demand interface deck 1 energy check value iteration history trace: 1831.499313,1831.499313,1831.499313,1831.499313,1831.499313,1831.499313,1831.499313,1831.499313,1831.499313,1831.499313,
   ************* Simulation Error Summary *************
   ** Warning ** The following Report Variables were requested but not generated -- check.rdd file
   **   ~~~   ** Either the IDF did not contain these elements, the variable name is misspelled,
   **   ~~~   ** or the requested variable is an advanced output which requires Output : Diagnostics, DisplayAdvancedReportVariables;
   ************* Key=*, VarName=BASEBOARD TOTAL HEATING ENERGY, Frequency=
   ************* Key=*, VarName=WATER HEATER NATURALGAS ENERGY, Frequency=
   ************* Key=*, VarName=COOLING COIL TOTAL HEATING ENERGY, Frequency=
   ************* There are 34 unused schedules in input.
   ************* There are 388 unused week schedules in input.
   ************* There are 396 unused day schedules in input.
   ************* Use Output:Diagnostics,DisplayUnusedSchedules; to see them.
   *************
   ************* ===== Recurring Error Summary =====
   ************* The following recurring error messages occurred.
   *************
   *************  ** Warning ** "TOTAL HOT WATER LOAD" - Target water temperature should be less than or equal to the hot water temperature error continues...
   *************  **   ~~~   **   This error occurred 114921 total times;
   *************  **   ~~~   **   during Warmup 0 times;
   *************  **   ~~~   **   during Sizing 0 times.
   *************  **   ~~~   **   Max=12.814976  Min=4.827978E-004
   *************
   *************  ** Warning ** SimHVAC: Exceeding Maximum iterations for all HVAC loops, during ANNUAL continues
   *************  **   ~~~   **   This error occurred 9 total times;
   *************  **   ~~~   **   during Warmup 0 times;
   *************  **   ~~~   **   during Sizing 0 times.
   *************
   *************
   ************* ===== Final Error Summary =====
   ************* The following error categories occurred.  Consider correcting or noting.
   ************* Nominally Unused Constructions
   ************* ..The nominally unused constructions warning is provided to alert you to potential conditions that can cause
   ************* ..extra time during simulation. Each construction is calculated by the algorithm indicated in the HeatBalanceAlgorithm
   ************* ..object. You may remove the constructions indicated (when you use the DisplayExtraWarnings option).
   *************
   ************* EnergyPlus Warmup Error Summary. During Warmup: 1 Warning; 0 Severe Errors.
   ************* EnergyPlus Sizing Error Summary. During Sizing: 4 Warning; 0 Severe Errors.
   ************* EnergyPlus Completed Successfully-- 114961 Warning; 0 Severe Errors; Elapsed Time=00hr 01min 26.96sec
