Program Version,EnergyPlus, Version 22.2.0-c249759bad, YMD=2023.08.31 12:58,
   ************* Beginning Zone Sizing Calculations
   ** Warning ** ProcessScheduleInput: Schedule:Constant="ALWAYS ON DISCRETE", Schedule Type Limits Name="ONOFF" not found -- will not be validated
   ** Warning ** Foundation:Kiva="KIVA FOUNDATION", no Interior Horizontal Insulation Material Name defined
   **   ~~~   ** Interior Horizontal Insulation Depth will not be used.
   ** Warning ** CheckUsedConstructions: There are 15 nominally unused constructions in input.
   **   ~~~   ** Each Unused construction is shown.
   ************* Construction=INTERIOR FLOOR
   ************* Construction=INTERIOR WINDOW
   ************* Construction=EXTERIOR DOOR
   ************* Construction=INTERIOR DOOR
   ************* Construction=GABLE CONSTRUCTION
   ************* Construction=CRAWL_FLOOR
   ************* Construction=INSULATED PIPE
   ************* Construction=PLAIN PIPE
   ************* Construction=TDD PIPE
   ************* Construction=TDD DOME
   ************* Construction=TDD DIFFUSER
   ************* Construction=CRAWL WALL
   ************* Construction=CEILING-FLOOR-LAYER
   ************* Construction=SLAB CONSTRUCTION W FULL R10 INSULATION
   ************* Construction=SLAB CONSTRUCTION W FULL R5 INSULATION
   ** Warning ** GetDXCoils: Coil:Heating:DX:SingleSpeed="DX_HEATING_COIL" curve values
   **   ~~~   ** ... Defrost Energy Input Ratio Function of Temperature Curve Name = DEFROSTEIR output is not equal to 1.0 (+ or - 10%) at rated conditions.
   **   ~~~   ** ... Curve output at rated conditions = 0.152
   ************* Beginning System Sizing Calculations
   ************* Beginning Plant Sizing Calculations
   ** Warning ** SizeDXCoil Coil:Cooling:DX:SingleSpeed DX_COOLING_COIL
   **   ~~~   ** ...Gross Rated Total Cooling Capacity [W] will be limited by the maximum rated volume flow per rated total capacity ratio.
   **   ~~~   ** ...DX coil volume flow rate ( m3/s ) = 0.429904
   **   ~~~   ** ...Requested capacity ( W ) = 6670.082
   **   ~~~   ** ...Requested flow/capacity ratio ( m3/s/W ) = 6.445E-005
   **   ~~~   ** ...Maximum flow/capacity ratio ( m3/s/W ) = 6.041E-005
   **   ~~~   ** ...Adjusted capacity ( W ) = 7116.446
   ** Warning ** Coil:WaterHeating:AirToWaterHeatPump:Wrapped "HEAT PUMP WATER HEATER EVAPORATOR": Rated air volume flow rate per watt of rated total water heating capacity is out of range
   **   ~~~   ** Min Rated Vol Flow Per Watt=[4.027E-005], Rated Vol Flow Per Watt=[1.386E-004], Max Rated Vol Flow Per Watt=[8.056E-005]. See Input-Output Reference Manual for valid range.
   ** Warning ** Water heater = WATER HEATER TANK:  Recovery Efficiency and Energy Factor could not be calculated during the test for standard ratings
   **   ~~~   ** Setpoint was never recovered and/or heater never turned on
   ** Warning ** Check input. Pump nominal power or motor efficiency is set to 0, for pump=MAINS PRESSURE
   ** Warning ** Output:Meter: invalid Key Name="ELECTRIC_RANGE:INTERIOREQUIPMENT:ELECTRICITY" - not found.
   ** Warning ** Output:Meter: invalid Key Name="ELECTRIC_DRYER:INTERIOREQUIPMENT:ELECTRICITY" - not found.
   ** Warning ** Output:Meter: invalid Key Name="HEATRECOVERY:ELECTRICITY" - not found.
   ** Warning ** Output:Meter: invalid Key Name="HEATING:NATURALGAS" - not found.
   ** Warning ** Output:Meter: invalid Key Name="WATERSYSTEMS:NATURALGAS" - not found.
   ** Warning ** Output:Meter: invalid Key Name="PROPANE:FACILITY" - not found.
   ** Warning ** Output:Meter: invalid Key Name="HEATING:PROPANE" - not found.
   ************* Testing Individual Branch Integrity
   ************* All Branches passed integrity testing
   ************* Testing Individual Supply Air Path Integrity
   ************* All Supply Air Paths passed integrity testing
   ************* Testing Individual Return Air Path Integrity
   ************* All Return Air Paths passed integrity testing
   ************* No node connection errors were found.
   ************* Beginning Simulation
   ** Warning ** AirflowNetwork::Solver::validate_distribution: Heat pump water heater is simulated along with an AirflowNetwork but is not included in the AirflowNetwork.
   ** Warning ** CalcEquipmentFlowRates: "TOTAL HOT WATER LOAD" - Target water temperature is greater than the hot water temperature by (0.23 C)
   **   ~~~   **  Environment=EXTREME_WINTER, at Simulation time=02/10 06:45 - 07:00
   **   ~~~   ** ...target water temperature     = 53.33 C
   **   ~~~   ** ...hot water temperature        = 53.10 C
   **   ~~~   ** ...Target water temperature should be less than or equal to the hot water temperature. Verify temperature setpoints and schedules.
   ** Warning ** SimHVAC: Maximum iterations (20) exceeded for all HVAC loops, at ANNUAL, 01/01 09:00 - 09:15
   **   ~~~   ** The solution for one or more of the Air Loop HVAC systems did not appear to converge
   **   ~~~   ** Air System Named = CENTRAL SYSTEM did not converge for mass flow rate
   **   ~~~   ** Check values should be zero. Most Recent values listed first.
   **   ~~~   ** Demand-to-Supply interface mass flow rate check value iteration history trace: 6.793860E-002,6.793860E-002,6.793860E-002,6.793860E-002,6.793860E-002,6.793860E-002,6.793860E-002,6.793860E-002,6.793860E-002,6.793860E-002,
   **   ~~~   ** Supply-to-demand interface deck 1 mass flow rate check value iteration history trace: 6.793860E-002,6.793860E-002,6.793860E-002,6.793860E-002,6.793860E-002,6.793860E-002,6.793860E-002,6.793860E-002,6.793860E-002,6.793860E-002,
   **   ~~~   ** Air System Named = CENTRAL SYSTEM did not converge for energy
   **   ~~~   ** Check values should be zero. Most Recent values listed first.
   **   ~~~   ** Demand-to-Supply interface energy check value iteration history trace: 1343.588108,1343.588107,1343.588106,1343.588105,1343.588104,1343.588103,1343.588102,1343.588101,1343.588100,1343.588099,
   **   ~~~   ** Supply-to-demand interface deck 1 energy check value iteration history trace: 2426.924741,2426.924740,2426.924738,2426.924736,2426.924734,2426.924733,2426.924731,2426.924729,2426.924727,2426.924726,
   ** Warning ** SimHVAC: Maximum iterations (20) exceeded for all HVAC loops, at ANNUAL, 01/07 10:30 - 10:45
   **   ~~~   ** The solution for one or more of the Air Loop HVAC systems did not appear to converge
   **   ~~~   ** Air System Named = CENTRAL SYSTEM did not converge for mass flow rate
   **   ~~~   ** Check values should be zero. Most Recent values listed first.
   **   ~~~   ** Demand-to-Supply interface mass flow rate check value iteration history trace: 6.101327E-002,6.101327E-002,6.101327E-002,6.101327E-002,6.101327E-002,6.101327E-002,6.101327E-002,6.101327E-002,6.101327E-002,6.101327E-002,
   **   ~~~   ** Supply-to-demand interface deck 1 mass flow rate check value iteration history trace: 6.101327E-002,6.101327E-002,6.101327E-002,6.101327E-002,6.101327E-002,6.101327E-002,6.101327E-002,6.101327E-002,6.101327E-002,6.101327E-002,
   **   ~~~   ** Air System Named = CENTRAL SYSTEM did not converge for energy
   **   ~~~   ** Check values should be zero. Most Recent values listed first.
   **   ~~~   ** Demand-to-Supply interface energy check value iteration history trace: 1199.348486,1199.348485,1199.348484,1199.348483,1199.348483,1199.348482,1199.348481,1199.348480,1199.348479,1199.348478,
   **   ~~~   ** Supply-to-demand interface deck 1 energy check value iteration history trace: 2205.744678,2205.744676,2205.744675,2205.744673,2205.744672,2205.744670,2205.744669,2205.744667,2205.744665,2205.744664,
   ** Warning ** SimHVAC: Maximum iterations (20) exceeded for all HVAC loops, at ANNUAL, 01/07 11:30 - 11:45
   **   ~~~   ** The solution for one or more of the Air Loop HVAC systems did not appear to converge
   **   ~~~   ** Air System Named = CENTRAL SYSTEM did not converge for mass flow rate
   **   ~~~   ** Check values should be zero. Most Recent values listed first.
   **   ~~~   ** Demand-to-Supply interface mass flow rate check value iteration history trace: 5.575395E-002,5.575395E-002,5.575395E-002,5.575395E-002,5.575395E-002,5.575395E-002,5.575395E-002,5.575395E-002,5.575395E-002,5.575395E-002,
   **   ~~~   ** Supply-to-demand interface deck 1 mass flow rate check value iteration history trace: 5.575395E-002,5.575395E-002,5.575395E-002,5.575395E-002,5.575395E-002,5.575395E-002,5.575395E-002,5.575395E-002,5.575395E-002,5.575395E-002,
   **   ~~~   ** Air System Named = CENTRAL SYSTEM did not converge for energy
   **   ~~~   ** Check values should be zero. Most Recent values listed first.
   **   ~~~   ** Demand-to-Supply interface energy check value iteration history trace: 1094.367467,1094.367466,1094.367465,1094.367465,1094.367464,1094.367463,1094.367462,1094.367461,1094.367461,1094.367460,
   **   ~~~   ** Supply-to-demand interface deck 1 energy check value iteration history trace: 2031.124341,2031.124339,2031.124338,2031.124336,2031.124335,2031.124334,2031.124332,2031.124331,2031.124329,2031.124328,
   ** Warning ** SimHVAC: Maximum iterations (20) exceeded for all HVAC loops, at ANNUAL, 02/09 09:45 - 10:00
   **   ~~~   ** The solution for one or more of the Air Loop HVAC systems did not appear to converge
   **   ~~~   ** Air System Named = CENTRAL SYSTEM did not converge for mass flow rate
   **   ~~~   ** Check values should be zero. Most Recent values listed first.
   **   ~~~   ** Demand-to-Supply interface mass flow rate check value iteration history trace: 8.491602E-002,8.491602E-002,8.491602E-002,8.491602E-002,8.491602E-002,8.491602E-002,8.491602E-002,8.491602E-002,8.491602E-002,8.491602E-002,
   **   ~~~   ** Supply-to-demand interface deck 1 mass flow rate check value iteration history trace: 8.491602E-002,8.491602E-002,8.491602E-002,8.491602E-002,8.491602E-002,8.491602E-002,8.491602E-002,8.491602E-002,8.491602E-002,8.491602E-002,
   **   ~~~   ** Air System Named = CENTRAL SYSTEM did not converge for energy
   **   ~~~   ** Check values should be zero. Most Recent values listed first.
   **   ~~~   ** Demand-to-Supply interface energy check value iteration history trace: 1682.730541,1682.730540,1682.730539,1682.730538,1682.730537,1682.730536,1682.730535,1682.730534,1682.730533,1682.730532,
   **   ~~~   ** Supply-to-demand interface deck 1 energy check value iteration history trace: 2997.944111,2997.944109,2997.944107,2997.944105,2997.944103,2997.944102,2997.944100,2997.944098,2997.944096,2997.944095,
   ** Warning ** SimHVAC: Maximum iterations (20) exceeded for all HVAC loops, at ANNUAL, 02/09 09:45 - 09:50
   **   ~~~   ** The solution for one or more of the Air Loop HVAC systems did not appear to converge
   **   ~~~   ** Air System Named = CENTRAL SYSTEM did not converge for mass flow rate
   **   ~~~   ** Check values should be zero. Most Recent values listed first.
   **   ~~~   ** Demand-to-Supply interface mass flow rate check value iteration history trace: 8.559103E-002,8.559103E-002,8.559103E-002,8.559103E-002,8.559103E-002,8.559103E-002,8.559103E-002,8.559103E-002,8.559103E-002,8.559103E-002,
   **   ~~~   ** Supply-to-demand interface deck 1 mass flow rate check value iteration history trace: 8.559103E-002,8.559103E-002,8.559103E-002,8.559103E-002,8.559103E-002,8.559103E-002,8.559103E-002,8.559103E-002,8.559103E-002,8.559103E-002,
   **   ~~~   ** Air System Named = CENTRAL SYSTEM did not converge for energy
   **   ~~~   ** Check values should be zero. Most Recent values listed first.
   **   ~~~   ** Demand-to-Supply interface energy check value iteration history trace: 1696.100873,1696.100872,1696.100871,1696.100870,1696.100869,1696.100868,1696.100867,1696.100866,1696.100865,1696.100864,
   **   ~~~   ** Supply-to-demand interface deck 1 energy check value iteration history trace: 3021.778989,3021.778988,3021.778986,3021.778984,3021.778982,3021.778980,3021.778979,3021.778977,3021.778975,3021.778973,
   ** Warning ** SimHVAC: Maximum iterations (20) exceeded for all HVAC loops, at ANNUAL, 02/09 11:08 - 11:10
   **   ~~~   ** The solution for one or more of the Air Loop HVAC systems did not appear to converge
   **   ~~~   ** Air System Named = CENTRAL SYSTEM did not converge for mass flow rate
   **   ~~~   ** Check values should be zero. Most Recent values listed first.
   **   ~~~   ** Demand-to-Supply interface mass flow rate check value iteration history trace: 7.462180E-002,7.462180E-002,7.462180E-002,7.462180E-002,7.462180E-002,7.462180E-002,7.462180E-002,7.462180E-002,7.462180E-002,7.462180E-002,
   **   ~~~   ** Supply-to-demand interface deck 1 mass flow rate check value iteration history trace: 7.462180E-002,7.462180E-002,7.462180E-002,7.462180E-002,7.462180E-002,7.462180E-002,7.462180E-002,7.462180E-002,7.462180E-002,7.462180E-002,
   **   ~~~   ** Air System Named = CENTRAL SYSTEM did not converge for energy
   **   ~~~   ** Check values should be zero. Most Recent values listed first.
   **   ~~~   ** Demand-to-Supply interface energy check value iteration history trace: 1468.640275,1468.640274,1468.640273,1468.640272,1468.640272,1468.640271,1468.640270,1468.640269,1468.640268,1468.640267,
   **   ~~~   ** Supply-to-demand interface deck 1 energy check value iteration history trace: 2678.953494,2678.953493,2678.953491,2678.953489,2678.953488,2678.953486,2678.953484,2678.953483,2678.953481,2678.953480,
   ** Warning ** SimHVAC: Maximum iterations (20) exceeded for all HVAC loops, at ANNUAL, 02/25 12:45 - 12:50
   **   ~~~   ** The solution for one or more of the Air Loop HVAC systems did not appear to converge
   **   ~~~   ** Air System Named = CENTRAL SYSTEM did not converge for mass flow rate
   **   ~~~   ** Check values should be zero. Most Recent values listed first.
   **   ~~~   ** Demand-to-Supply interface mass flow rate check value iteration history trace: 5.796874E-002,5.796874E-002,5.796874E-002,5.796874E-002,5.796874E-002,5.796874E-002,5.796873E-002,5.796873E-002,5.796873E-002,5.796873E-002,
   **   ~~~   ** Supply-to-demand interface deck 1 mass flow rate check value iteration history trace: 5.796874E-002,5.796874E-002,5.796874E-002,5.796874E-002,5.796874E-002,5.796874E-002,5.796873E-002,5.796873E-002,5.796873E-002,5.796873E-002,
   **   ~~~   ** Air System Named = CENTRAL SYSTEM did not converge for energy
   **   ~~~   ** Check values should be zero. Most Recent values listed first.
   **   ~~~   ** Demand-to-Supply interface energy check value iteration history trace: 1136.230723,1136.230722,1136.230721,1136.230720,1136.230719,1136.230717,1136.230716,1136.230715,1136.230714,1136.230713,
   **   ~~~   ** Supply-to-demand interface deck 1 energy check value iteration history trace: 2070.567903,2070.567901,2070.567899,2070.567897,2070.567895,2070.567893,2070.567891,2070.567889,2070.567887,2070.567885,
   ** Warning ** SimHVAC: Maximum iterations (20) exceeded for all HVAC loops, at ANNUAL, 03/09 19:15 - 19:20
   **   ~~~   ** The solution for one or more of the Air Loop HVAC systems did not appear to converge
   **   ~~~   ** Air System Named = CENTRAL SYSTEM did not converge for mass flow rate
   **   ~~~   ** Check values should be zero. Most Recent values listed first.
   **   ~~~   ** Demand-to-Supply interface mass flow rate check value iteration history trace: 9.307124E-002,9.307124E-002,9.307124E-002,9.307124E-002,9.307124E-002,9.307124E-002,9.307124E-002,9.307124E-002,9.307124E-002,9.307124E-002,
   **   ~~~   ** Supply-to-demand interface deck 1 mass flow rate check value iteration history trace: 9.307124E-002,9.307124E-002,9.307124E-002,9.307124E-002,9.307124E-002,9.307124E-002,9.307124E-002,9.307124E-002,9.307124E-002,9.307124E-002,
   **   ~~~   ** Air System Named = CENTRAL SYSTEM did not converge for energy
   **   ~~~   ** Check values should be zero. Most Recent values listed first.
   **   ~~~   ** Demand-to-Supply interface energy check value iteration history trace: 1837.831436,1837.831433,1837.831431,1837.831428,1837.831426,1837.831423,1837.831421,1837.831418,1837.831416,1837.831413,
   **   ~~~   ** Supply-to-demand interface deck 1 energy check value iteration history trace: 2856.553105,2856.553101,2856.553097,2856.553093,2856.553089,2856.553085,2856.553082,2856.553078,2856.553074,2856.553070,
   ** Warning ** SimHVAC: Maximum iterations (20) exceeded for all HVAC loops, at ANNUAL, 03/13 09:00 - 09:03
   **   ~~~   ** The solution for one or more of the Air Loop HVAC systems did not appear to converge
   **   ~~~   ** Air System Named = CENTRAL SYSTEM did not converge for mass flow rate
   **   ~~~   ** Check values should be zero. Most Recent values listed first.
   **   ~~~   ** Demand-to-Supply interface mass flow rate check value iteration history trace: 6.633305E-002,6.633305E-002,6.633305E-002,6.633305E-002,6.633305E-002,6.633305E-002,6.633305E-002,6.633305E-002,6.633305E-002,6.633305E-002,
   **   ~~~   ** Supply-to-demand interface deck 1 mass flow rate check value iteration history trace: 6.633305E-002,6.633305E-002,6.633305E-002,6.633305E-002,6.633305E-002,6.633305E-002,6.633305E-002,6.633305E-002,6.633305E-002,6.633305E-002,
   **   ~~~   ** Air System Named = CENTRAL SYSTEM did not converge for energy
   **   ~~~   ** Check values should be zero. Most Recent values listed first.
   **   ~~~   ** Demand-to-Supply interface energy check value iteration history trace: 1314.480667,1314.480666,1314.480664,1314.480663,1314.480662,1314.480660,1314.480659,1314.480658,1314.480656,1314.480655,
   **   ~~~   ** Supply-to-demand interface deck 1 energy check value iteration history trace: 2356.087582,2356.087579,2356.087577,2356.087575,2356.087572,2356.087570,2356.087567,2356.087565,2356.087563,2356.087560,
   ** Warning ** SimHVAC: Maximum iterations (20) exceeded for all HVAC loops, at ANNUAL, 03/14 07:00 - 07:15
   **   ~~~   ** The solution for one or more of the Air Loop HVAC systems did not appear to converge
   **   ~~~   ** Air System Named = CENTRAL SYSTEM did not converge for mass flow rate
   **   ~~~   ** Check values should be zero. Most Recent values listed first.
   **   ~~~   ** Demand-to-Supply interface mass flow rate check value iteration history trace: 7.229035E-002,7.229035E-002,7.229035E-002,7.229035E-002,7.229035E-002,7.229035E-002,7.229035E-002,7.229035E-002,7.229035E-002,7.229035E-002,
   **   ~~~   ** Supply-to-demand interface deck 1 mass flow rate check value iteration history trace: 7.229035E-002,7.229035E-002,7.229035E-002,7.229035E-002,7.229035E-002,7.229035E-002,7.229035E-002,7.229035E-002,7.229035E-002,7.229035E-002,
   **   ~~~   ** Air System Named = CENTRAL SYSTEM did not converge for energy
   **   ~~~   ** Check values should be zero. Most Recent values listed first.
   **   ~~~   ** Demand-to-Supply interface energy check value iteration history trace: 1432.208615,1432.208614,1432.208613,1432.208613,1432.208612,1432.208611,1432.208610,1432.208609,1432.208609,1432.208608,
   **   ~~~   ** Supply-to-demand interface deck 1 energy check value iteration history trace: 2551.478116,2551.478115,2551.478114,2551.478112,2551.478111,2551.478109,2551.478108,2551.478107,2551.478105,2551.478104,
   ** Warning ** SimHVAC: Maximum iterations (20) exceeded for all HVAC loops, at ANNUAL, 03/15 09:30 - 09:38
   **   ~~~   ** The solution for one or more of the Air Loop HVAC systems did not appear to converge
   **   ~~~   ** Air System Named = CENTRAL SYSTEM did not converge for mass flow rate
   **   ~~~   ** Check values should be zero. Most Recent values listed first.
   **   ~~~   ** Demand-to-Supply interface mass flow rate check value iteration history trace: 6.784929E-002,6.784929E-002,6.784929E-002,6.784929E-002,6.784929E-002,6.784929E-002,6.784929E-002,6.784929E-002,6.784929E-002,6.784929E-002,
   **   ~~~   ** Supply-to-demand interface deck 1 mass flow rate check value iteration history trace: 6.784929E-002,6.784929E-002,6.784929E-002,6.784929E-002,6.784929E-002,6.784929E-002,6.784929E-002,6.784929E-002,6.784929E-002,6.784929E-002,
   **   ~~~   ** Air System Named = CENTRAL SYSTEM did not converge for energy
   **   ~~~   ** Check values should be zero. Most Recent values listed first.
   **   ~~~   ** Demand-to-Supply interface energy check value iteration history trace: 1340.677245,1340.677244,1340.677243,1340.677242,1340.677241,1340.677240,1340.677239,1340.677239,1340.677238,1340.677237,
   **   ~~~   ** Supply-to-demand interface deck 1 energy check value iteration history trace: 2435.368502,2435.368500,2435.368499,2435.368497,2435.368495,2435.368494,2435.368492,2435.368490,2435.368489,2435.368487,
   ** Warning ** SimHVAC: Maximum iterations (20) exceeded for all HVAC loops, at ANNUAL, 03/22 08:00 - 08:03
   **   ~~~   ** The solution for one or more of the Air Loop HVAC systems did not appear to converge
   **   ~~~   ** Air System Named = CENTRAL SYSTEM did not converge for mass flow rate
   **   ~~~   ** Check values should be zero. Most Recent values listed first.
   **   ~~~   ** Demand-to-Supply interface mass flow rate check value iteration history trace: 6.654527E-002,6.654527E-002,6.654527E-002,6.654527E-002,6.654527E-002,6.654527E-002,6.654527E-002,6.654527E-002,6.654527E-002,6.654527E-002,
   **   ~~~   ** Supply-to-demand interface deck 1 mass flow rate check value iteration history trace: 6.654527E-002,6.654527E-002,6.654527E-002,6.654527E-002,6.654527E-002,6.654527E-002,6.654527E-002,6.654527E-002,6.654527E-002,6.654527E-002,
   **   ~~~   ** Air System Named = CENTRAL SYSTEM did not converge for energy
   **   ~~~   ** Check values should be zero. Most Recent values listed first.
   **   ~~~   ** Demand-to-Supply interface energy check value iteration history trace: 1318.696332,1318.696331,1318.696330,1318.696329,1318.696329,1318.696328,1318.696327,1318.696326,1318.696325,1318.696324,
   **   ~~~   ** Supply-to-demand interface deck 1 energy check value iteration history trace: 2351.514143,2351.514142,2351.514140,2351.514139,2351.514137,2351.514136,2351.514134,2351.514133,2351.514131,2351.514130,
   ** Warning ** SimHVAC: Maximum iterations (20) exceeded for all HVAC loops, at ANNUAL, 04/18 19:45 - 20:00
   **   ~~~   ** The solution for one or more of the Air Loop HVAC systems did not appear to converge
   **   ~~~   ** Air System Named = CENTRAL SYSTEM did not converge for mass flow rate
   **   ~~~   ** Check values should be zero. Most Recent values listed first.
   **   ~~~   ** Demand-to-Supply interface mass flow rate check value iteration history trace: 6.455962E-002,6.455962E-002,6.455962E-002,6.455962E-002,6.455962E-002,6.455962E-002,6.455962E-002,6.455962E-002,6.455962E-002,6.455962E-002,
   **   ~~~   ** Supply-to-demand interface deck 1 mass flow rate check value iteration history trace: 6.455962E-002,6.455962E-002,6.455962E-002,6.455962E-002,6.455962E-002,6.455962E-002,6.455962E-002,6.455962E-002,6.455962E-002,6.455962E-002,
   **   ~~~   ** Air System Named = CENTRAL SYSTEM did not converge for energy
   **   ~~~   ** Check values should be zero. Most Recent values listed first.
   **   ~~~   ** Demand-to-Supply interface energy check value iteration history trace: 1263.783956,1263.783954,1263.783951,1263.783949,1263.783946,1263.783944,1263.783942,1263.783939,1263.783937,1263.783935,
   **   ~~~   ** Supply-to-demand interface deck 1 energy check value iteration history trace: 2234.481072,2234.481068,2234.481064,2234.481059,2234.481055,2234.481051,2234.481047,2234.481043,2234.481038,2234.481034,
   **   ~~~   ** Node named ZONE INLET NODE shows oscillating temperatures across iterations with a repeated value of 34.444281
   **   ~~~   ** Node named ZONE INLET NODE temperature [C] iteration history trace (most recent first): 34.444281,34.444280,34.444280,34.444280,34.444280,34.444279,34.444279,34.444279,34.444279,34.444279,
   ** Warning ** SimHVAC: Maximum iterations (20) exceeded for all HVAC loops, at ANNUAL, 11/18 12:00 - 12:15
   **   ~~~   ** The solution for one or more of the Air Loop HVAC systems did not appear to converge
   **   ~~~   ** Air System Named = CENTRAL SYSTEM did not converge for mass flow rate
   **   ~~~   ** Check values should be zero. Most Recent values listed first.
   **   ~~~   ** Demand-to-Supply interface mass flow rate check value iteration history trace: 2.120981E-002,2.120981E-002,2.120981E-002,2.120981E-002,2.120981E-002,2.120981E-002,2.120981E-002,2.120981E-002,2.120981E-002,2.120981E-002,
   **   ~~~   ** Supply-to-demand interface deck 1 mass flow rate check value iteration history trace: 2.120981E-002,2.120981E-002,2.120981E-002,2.120981E-002,2.120981E-002,2.120981E-002,2.120981E-002,2.120981E-002,2.120981E-002,2.120981E-002,
   **   ~~~   ** Air System Named = CENTRAL SYSTEM did not converge for energy
   **   ~~~   ** Check values should be zero. Most Recent values listed first.
   **   ~~~   ** Demand-to-Supply interface energy check value iteration history trace: 420.300268,420.300268,420.300268,420.300268,420.300267,420.300267,420.300267,420.300267,420.300266,420.300266,
   **   ~~~   ** Supply-to-demand interface deck 1 energy check value iteration history trace: 747.792097,747.792096,747.792096,747.792095,747.792095,747.792095,747.792094,747.792094,747.792093,747.792093,
   ************* Simulation Error Summary *************
   ** Warning ** The following Report Variables were requested but not generated -- check.rdd file
   **   ~~~   ** Either the IDF did not contain these elements, the variable name is misspelled,
   **   ~~~   ** or the requested variable is an advanced output which requires Output : Diagnostics, DisplayAdvancedReportVariables;
   ************* Key=*, VarName=BASEBOARD TOTAL HEATING ENERGY, Frequency=
   ************* Key=*, VarName=WATER HEATER NATURALGAS ENERGY, Frequency=
   ************* Key=*, VarName=COOLING COIL TOTAL HEATING ENERGY, Frequency=
   ************* There are 34 unused schedules in input.
   ************* There are 388 unused week schedules in input.
   ************* There are 397 unused day schedules in input.
   ************* Use Output:Diagnostics,DisplayUnusedSchedules; to see them.
   *************
   ************* ===== Recurring Error Summary =====
   ************* The following recurring error messages occurred.
   *************
   *************  ** Warning ** "TOTAL HOT WATER LOAD" - Target water temperature should be less than or equal to the hot water temperature error continues...
   *************  **   ~~~   **   This error occurred 104889 total times;
   *************  **   ~~~   **   during Warmup 0 times;
   *************  **   ~~~   **   during Sizing 0 times.
   *************  **   ~~~   **   Max=9.856332  Min=2.882077E-004
   *************
   *************  ** Warning ** SimHVAC: Exceeding Maximum iterations for all HVAC loops, during ANNUAL continues
   *************  **   ~~~   **   This error occurred 3 total times;
   *************  **   ~~~   **   during Warmup 0 times;
   *************  **   ~~~   **   during Sizing 0 times.
   *************
   *************
   ************* ===== Final Error Summary =====
   ************* The following error categories occurred.  Consider correcting or noting.
   ************* Nominally Unused Constructions
   ************* ..The nominally unused constructions warning is provided to alert you to potential conditions that can cause
   ************* ..extra time during simulation. Each construction is calculated by the algorithm indicated in the HeatBalanceAlgorithm
   ************* ..object. You may remove the constructions indicated (when you use the DisplayExtraWarnings option).
   *************
   ************* EnergyPlus Warmup Error Summary. During Warmup: 1 Warning; 0 Severe Errors.
   ************* EnergyPlus Sizing Error Summary. During Sizing: 4 Warning; 0 Severe Errors.
   ************* EnergyPlus Completed Successfully-- 104924 Warning; 0 Severe Errors; Elapsed Time=00hr 05min 57.72sec
