Program Version,EnergyPlus, Version 22.2.0-c249759bad, YMD=2023.09.01 20:14,
   ************* Beginning Zone Sizing Calculations
   ** Warning ** ProcessScheduleInput: Schedule:Constant="ALWAYS ON DISCRETE", Schedule Type Limits Name="ONOFF" not found -- will not be validated
   ** Warning ** Foundation:Kiva="KIVA FOUNDATION", no Interior Horizontal Insulation Material Name defined
   **   ~~~   ** Interior Horizontal Insulation Depth will not be used.
   ** Warning ** CheckUsedConstructions: There are 15 nominally unused constructions in input.
   **   ~~~   ** Each Unused construction is shown.
   ************* Construction=INTERIOR FLOOR
   ************* Construction=INTERIOR WINDOW
   ************* Construction=EXTERIOR DOOR
   ************* Construction=INTERIOR DOOR
   ************* Construction=GABLE CONSTRUCTION
   ************* Construction=CRAWL_FLOOR
   ************* Construction=INSULATED PIPE
   ************* Construction=PLAIN PIPE
   ************* Construction=TDD PIPE
   ************* Construction=TDD DOME
   ************* Construction=TDD DIFFUSER
   ************* Construction=CRAWL WALL
   ************* Construction=CEILING-FLOOR-LAYER
   ************* Construction=SLAB CONSTRUCTION W FULL R10 INSULATION
   ************* Construction=SLAB CONSTRUCTION W FULL R5 INSULATION
   ** Warning ** GetDXCoils: Coil:Heating:DX:SingleSpeed="DX_HEATING_COIL" curve values
   **   ~~~   ** ... Defrost Energy Input Ratio Function of Temperature Curve Name = DEFROSTEIR output is not equal to 1.0 (+ or - 10%) at rated conditions.
   **   ~~~   ** ... Curve output at rated conditions = 0.152
   ************* Beginning System Sizing Calculations
   ************* Beginning Plant Sizing Calculations
   ** Warning ** SizeDXCoil Coil:Cooling:DX:SingleSpeed DX_COOLING_COIL
   **   ~~~   ** ...Gross Rated Total Cooling Capacity [W] will be limited by the maximum rated volume flow per rated total capacity ratio.
   **   ~~~   ** ...DX coil volume flow rate ( m3/s ) = 0.501729
   **   ~~~   ** ...Requested capacity ( W ) = 6214.796
   **   ~~~   ** ...Requested flow/capacity ratio ( m3/s/W ) = 8.073E-005
   **   ~~~   ** ...Maximum flow/capacity ratio ( m3/s/W ) = 6.041E-005
   **   ~~~   ** ...Adjusted capacity ( W ) = 8305.397
   ** Warning ** Coil:WaterHeating:AirToWaterHeatPump:Wrapped "HEAT PUMP WATER HEATER EVAPORATOR": Rated air volume flow rate per watt of rated total water heating capacity is out of range
   **   ~~~   ** Min Rated Vol Flow Per Watt=[4.027E-005], Rated Vol Flow Per Watt=[1.510E-004], Max Rated Vol Flow Per Watt=[8.056E-005]. See Input-Output Reference Manual for valid range.
   ************* SizeFan: : Potential issue with equipment sizing for Fan:OnOff HEAT PUMP WATER HEATER FAN
   **   ~~~   ** User-Specified Maximum Flow Rate [m3/s] = 0.22653
   **   ~~~   ** differs from Design Size Maximum Flow Rate [m3/s] = 7.55250E-002
   **   ~~~   ** This may, or may not, indicate mismatched component sizes.
   **   ~~~   ** Verify that the value entered is intended and is consistent with other components.
   ** Warning ** Water heater = WATER HEATER TANK:  Recovery Efficiency and Energy Factor could not be calculated during the test for standard ratings
   **   ~~~   ** Setpoint was never recovered and/or heater never turned on
   ** Warning ** Check input. Pump nominal power or motor efficiency is set to 0, for pump=MAINS PRESSURE
   ** Warning ** Output:Meter: invalid Key Name="ELECTRIC_RANGE:INTERIOREQUIPMENT:ELECTRICITY" - not found.
   ** Warning ** Output:Meter: invalid Key Name="ELECTRIC_DRYER:INTERIOREQUIPMENT:ELECTRICITY" - not found.
   ** Warning ** Output:Meter: invalid Key Name="HEATRECOVERY:ELECTRICITY" - not found.
   ** Warning ** Output:Meter: invalid Key Name="HEATING:NATURALGAS" - not found.
   ** Warning ** Output:Meter: invalid Key Name="WATERSYSTEMS:NATURALGAS" - not found.
   ** Warning ** Output:Meter: invalid Key Name="PROPANE:FACILITY" - not found.
   ** Warning ** Output:Meter: invalid Key Name="HEATING:PROPANE" - not found.
   ************* Testing Individual Branch Integrity
   ************* All Branches passed integrity testing
   ************* Testing Individual Supply Air Path Integrity
   ************* All Supply Air Paths passed integrity testing
   ************* Testing Individual Return Air Path Integrity
   ************* All Return Air Paths passed integrity testing
   ************* No node connection errors were found.
   ************* Beginning Simulation
   ** Warning ** AirflowNetwork::Solver::validate_distribution: Heat pump water heater is simulated along with an AirflowNetwork but is not included in the AirflowNetwork.
   ** Warning ** CalcEquipmentFlowRates: "TOTAL HOT WATER LOAD" - Target water temperature is greater than the hot water temperature by (3.48 C)
   **   ~~~   **  Environment=EXTREME_WINTER, at Simulation time=12/22 07:00 - 07:15
   **   ~~~   ** ...target water temperature     = 53.33 C
   **   ~~~   ** ...hot water temperature        = 49.86 C
   **   ~~~   ** ...Target water temperature should be less than or equal to the hot water temperature. Verify temperature setpoints and schedules.
   ** Warning ** SimHVAC: Maximum iterations (20) exceeded for all HVAC loops, at ANNUAL, 01/02 14:08 - 14:15
   **   ~~~   ** The solution for one or more of the Air Loop HVAC systems did not appear to converge
   **   ~~~   ** Air System Named = CENTRAL SYSTEM did not converge for mass flow rate
   **   ~~~   ** Check values should be zero. Most Recent values listed first.
   **   ~~~   ** Demand-to-Supply interface mass flow rate check value iteration history trace: 5.477662E-002,5.477662E-002,5.477662E-002,5.477662E-002,5.477662E-002,5.477662E-002,5.477662E-002,5.477662E-002,5.477662E-002,5.477662E-002,
   **   ~~~   ** Supply-to-demand interface deck 1 mass flow rate check value iteration history trace: 5.477662E-002,5.477662E-002,5.477662E-002,5.477662E-002,5.477662E-002,5.477662E-002,5.477662E-002,5.477662E-002,5.477662E-002,5.477662E-002,
   **   ~~~   ** Air System Named = CENTRAL SYSTEM did not converge for energy
   **   ~~~   ** Check values should be zero. Most Recent values listed first.
   **   ~~~   ** Demand-to-Supply interface energy check value iteration history trace: 1076.002571,1076.002571,1076.002571,1076.002570,1076.002570,1076.002570,1076.002570,1076.002570,1076.002570,1076.002570,
   **   ~~~   ** Supply-to-demand interface deck 1 energy check value iteration history trace: 1750.343026,1750.343026,1750.343026,1750.343026,1750.343026,1750.343026,1750.343026,1750.343025,1750.343025,1750.343025,
   ** Warning ** SimHVAC: Maximum iterations (20) exceeded for all HVAC loops, at ANNUAL, 02/15 18:45 - 19:00
   **   ~~~   ** The solution for one or more of the Air Loop HVAC systems did not appear to converge
   **   ~~~   ** Air System Named = CENTRAL SYSTEM did not converge for mass flow rate
   **   ~~~   ** Check values should be zero. Most Recent values listed first.
   **   ~~~   ** Demand-to-Supply interface mass flow rate check value iteration history trace: 6.333915E-002,6.333915E-002,6.333915E-002,6.333915E-002,6.333915E-002,6.333915E-002,6.333915E-002,6.333915E-002,6.333915E-002,6.333915E-002,
   **   ~~~   ** Supply-to-demand interface deck 1 mass flow rate check value iteration history trace: 6.333915E-002,6.333915E-002,6.333915E-002,6.333915E-002,6.333915E-002,6.333915E-002,6.333915E-002,6.333915E-002,6.333915E-002,6.333915E-002,
   **   ~~~   ** Air System Named = CENTRAL SYSTEM did not converge for energy
   **   ~~~   ** Check values should be zero. Most Recent values listed first.
   **   ~~~   ** Demand-to-Supply interface energy check value iteration history trace: 1250.301944,1250.301944,1250.301944,1250.301944,1250.301944,1250.301944,1250.301944,1250.301944,1250.301944,1250.301944,
   **   ~~~   ** Supply-to-demand interface deck 1 energy check value iteration history trace: 1979.973946,1979.973946,1979.973946,1979.973945,1979.973945,1979.973945,1979.973945,1979.973945,1979.973945,1979.973945,
   ** Warning ** SimHVAC: Maximum iterations (20) exceeded for all HVAC loops, at ANNUAL, 02/20 12:25 - 12:30
   **   ~~~   ** The solution for one or more of the Air Loop HVAC systems did not appear to converge
   **   ~~~   ** Air System Named = CENTRAL SYSTEM did not converge for mass flow rate
   **   ~~~   ** Check values should be zero. Most Recent values listed first.
   **   ~~~   ** Demand-to-Supply interface mass flow rate check value iteration history trace: 5.081028E-002,5.081028E-002,5.081028E-002,5.081028E-002,5.081028E-002,5.081028E-002,5.081028E-002,5.081028E-002,5.081028E-002,5.081028E-002,
   **   ~~~   ** Supply-to-demand interface deck 1 mass flow rate check value iteration history trace: 5.081028E-002,5.081028E-002,5.081028E-002,5.081028E-002,5.081028E-002,5.081028E-002,5.081028E-002,5.081028E-002,5.081028E-002,5.081028E-002,
   **   ~~~   ** Air System Named = CENTRAL SYSTEM did not converge for energy
   **   ~~~   ** Check values should be zero. Most Recent values listed first.
   **   ~~~   ** Demand-to-Supply interface energy check value iteration history trace: 1006.906719,1006.906719,1006.906719,1006.906719,1006.906719,1006.906719,1006.906719,1006.906719,1006.906719,1006.906719,
   **   ~~~   ** Supply-to-demand interface deck 1 energy check value iteration history trace: 1836.104908,1836.104908,1836.104908,1836.104908,1836.104908,1836.104908,1836.104908,1836.104908,1836.104908,1836.104908,
   ** Warning ** SimHVAC: Maximum iterations (20) exceeded for all HVAC loops, at ANNUAL, 02/23 18:30 - 18:45
   **   ~~~   ** The solution for one or more of the Air Loop HVAC systems did not appear to converge
   **   ~~~   ** Air System Named = CENTRAL SYSTEM did not converge for mass flow rate
   **   ~~~   ** Check values should be zero. Most Recent values listed first.
   **   ~~~   ** Demand-to-Supply interface mass flow rate check value iteration history trace: 6.183646E-002,6.183646E-002,6.183646E-002,6.183646E-002,6.183646E-002,6.183646E-002,6.183646E-002,6.183646E-002,6.183646E-002,6.183646E-002,
   **   ~~~   ** Supply-to-demand interface deck 1 mass flow rate check value iteration history trace: 6.183646E-002,6.183646E-002,6.183646E-002,6.183646E-002,6.183646E-002,6.183646E-002,6.183646E-002,6.183646E-002,6.183646E-002,6.183646E-002,
   **   ~~~   ** Air System Named = CENTRAL SYSTEM did not converge for energy
   **   ~~~   ** Check values should be zero. Most Recent values listed first.
   **   ~~~   ** Demand-to-Supply interface energy check value iteration history trace: 1218.172253,1218.172253,1218.172253,1218.172253,1218.172253,1218.172252,1218.172252,1218.172252,1218.172252,1218.172252,
   **   ~~~   ** Supply-to-demand interface deck 1 energy check value iteration history trace: 2010.573870,2010.573870,2010.573870,2010.573870,2010.573870,2010.573870,2010.573870,2010.573870,2010.573870,2010.573870,
   ** Warning ** SimHVAC: Maximum iterations (20) exceeded for all HVAC loops, at ANNUAL, 03/11 11:15 - 11:30
   **   ~~~   ** The solution for one or more of the Air Loop HVAC systems did not appear to converge
   **   ~~~   ** Air System Named = CENTRAL SYSTEM did not converge for mass flow rate
   **   ~~~   ** Check values should be zero. Most Recent values listed first.
   **   ~~~   ** Demand-to-Supply interface mass flow rate check value iteration history trace: 4.847215E-002,4.847215E-002,4.847215E-002,4.847215E-002,4.847215E-002,4.847215E-002,4.847215E-002,4.847215E-002,4.847215E-002,4.847215E-002,
   **   ~~~   ** Supply-to-demand interface deck 1 mass flow rate check value iteration history trace: 4.847215E-002,4.847215E-002,4.847215E-002,4.847215E-002,4.847215E-002,4.847215E-002,4.847215E-002,4.847215E-002,4.847215E-002,4.847215E-002,
   **   ~~~   ** Air System Named = CENTRAL SYSTEM did not converge for energy
   **   ~~~   ** Check values should be zero. Most Recent values listed first.
   **   ~~~   ** Demand-to-Supply interface energy check value iteration history trace: 949.310085,949.310085,949.310085,949.310085,949.310084,949.310084,949.310084,949.310084,949.310084,949.310084,
   **   ~~~   ** Supply-to-demand interface deck 1 energy check value iteration history trace: 1791.166693,1791.166692,1791.166692,1791.166692,1791.166692,1791.166691,1791.166691,1791.166691,1791.166691,1791.166690,
   ** Warning ** SimHVAC: Maximum iterations (20) exceeded for all HVAC loops, at ANNUAL, 03/12 09:30 - 09:32
   **   ~~~   ** The solution for one or more of the Air Loop HVAC systems did not appear to converge
   **   ~~~   ** Air System Named = CENTRAL SYSTEM did not converge for mass flow rate
   **   ~~~   ** Check values should be zero. Most Recent values listed first.
   **   ~~~   ** Demand-to-Supply interface mass flow rate check value iteration history trace: 6.470848E-002,6.470848E-002,6.470848E-002,6.470848E-002,6.470848E-002,6.470848E-002,6.470848E-002,6.470848E-002,6.470848E-002,6.470848E-002,
   **   ~~~   ** Supply-to-demand interface deck 1 mass flow rate check value iteration history trace: 6.470848E-002,6.470848E-002,6.470848E-002,6.470848E-002,6.470848E-002,6.470848E-002,6.470848E-002,6.470848E-002,6.470848E-002,6.470848E-002,
   **   ~~~   ** Air System Named = CENTRAL SYSTEM did not converge for energy
   **   ~~~   ** Check values should be zero. Most Recent values listed first.
   **   ~~~   ** Demand-to-Supply interface energy check value iteration history trace: 1279.817610,1279.817610,1279.817610,1279.817610,1279.817610,1279.817610,1279.817610,1279.817610,1279.817610,1279.817610,
   **   ~~~   ** Supply-to-demand interface deck 1 energy check value iteration history trace: 2335.405484,2335.405484,2335.405484,2335.405484,2335.405484,2335.405484,2335.405484,2335.405484,2335.405484,2335.405484,
   ** Warning ** SimHVAC: Maximum iterations (20) exceeded for all HVAC loops, at ANNUAL, 03/16 08:32 - 08:34
   **   ~~~   ** The solution for one or more of the Air Loop HVAC systems did not appear to converge
   **   ~~~   ** Air System Named = CENTRAL SYSTEM did not converge for mass flow rate
   **   ~~~   ** Check values should be zero. Most Recent values listed first.
   **   ~~~   ** Demand-to-Supply interface mass flow rate check value iteration history trace: 4.994520E-002,4.994520E-002,4.994520E-002,4.994520E-002,4.994520E-002,4.994520E-002,4.994520E-002,4.994520E-002,4.994520E-002,4.994520E-002,
   **   ~~~   ** Supply-to-demand interface deck 1 mass flow rate check value iteration history trace: 4.994520E-002,4.994520E-002,4.994520E-002,4.994520E-002,4.994520E-002,4.994520E-002,4.994520E-002,4.994520E-002,4.994520E-002,4.994520E-002,
   **   ~~~   ** Air System Named = CENTRAL SYSTEM did not converge for energy
   **   ~~~   ** Check values should be zero. Most Recent values listed first.
   **   ~~~   ** Demand-to-Supply interface energy check value iteration history trace: 989.950553,989.950553,989.950553,989.950553,989.950553,989.950553,989.950553,989.950553,989.950553,989.950553,
   **   ~~~   ** Supply-to-demand interface deck 1 energy check value iteration history trace: 1910.821249,1910.821249,1910.821249,1910.821249,1910.821249,1910.821249,1910.821249,1910.821249,1910.821249,1910.821249,
   ** Warning ** SimHVAC: Maximum iterations (20) exceeded for all HVAC loops, at ANNUAL, 03/17 10:05 - 10:10
   **   ~~~   ** The solution for one or more of the Air Loop HVAC systems did not appear to converge
   **   ~~~   ** Air System Named = CENTRAL SYSTEM did not converge for mass flow rate
   **   ~~~   ** Check values should be zero. Most Recent values listed first.
   **   ~~~   ** Demand-to-Supply interface mass flow rate check value iteration history trace: 6.118492E-002,6.118492E-002,6.118492E-002,6.118492E-002,6.118492E-002,6.118492E-002,6.118492E-002,6.118492E-002,6.118492E-002,6.118492E-002,
   **   ~~~   ** Supply-to-demand interface deck 1 mass flow rate check value iteration history trace: 6.118492E-002,6.118492E-002,6.118492E-002,6.118492E-002,6.118492E-002,6.118492E-002,6.118492E-002,6.118492E-002,6.118492E-002,6.118492E-002,
   **   ~~~   ** Air System Named = CENTRAL SYSTEM did not converge for energy
   **   ~~~   ** Check values should be zero. Most Recent values listed first.
   **   ~~~   ** Demand-to-Supply interface energy check value iteration history trace: 1202.929187,1202.929187,1202.929187,1202.929187,1202.929187,1202.929187,1202.929187,1202.929187,1202.929187,1202.929187,
   **   ~~~   ** Supply-to-demand interface deck 1 energy check value iteration history trace: 2242.641301,2242.641300,2242.641300,2242.641300,2242.641300,2242.641300,2242.641300,2242.641300,2242.641300,2242.641300,
   ** Warning ** SimHVAC: Maximum iterations (20) exceeded for all HVAC loops, at ANNUAL, 03/25 12:15 - 12:30
   **   ~~~   ** The solution for one or more of the Air Loop HVAC systems did not appear to converge
   **   ~~~   ** Air System Named = CENTRAL SYSTEM did not converge for mass flow rate
   **   ~~~   ** Check values should be zero. Most Recent values listed first.
   **   ~~~   ** Demand-to-Supply interface mass flow rate check value iteration history trace: 4.128579E-002,4.128579E-002,4.128579E-002,4.128579E-002,4.128579E-002,4.128579E-002,4.128579E-002,4.128579E-002,4.128579E-002,4.128579E-002,
   **   ~~~   ** Supply-to-demand interface deck 1 mass flow rate check value iteration history trace: 4.128579E-002,4.128579E-002,4.128579E-002,4.128579E-002,4.128579E-002,4.128579E-002,4.128579E-002,4.128579E-002,4.128579E-002,4.128579E-002,
   **   ~~~   ** Air System Named = CENTRAL SYSTEM did not converge for energy
   **   ~~~   ** Check values should be zero. Most Recent values listed first.
   **   ~~~   ** Demand-to-Supply interface energy check value iteration history trace: 818.116685,818.116685,818.116685,818.116685,818.116685,818.116685,818.116685,818.116685,818.116685,818.116685,
   **   ~~~   ** Supply-to-demand interface deck 1 energy check value iteration history trace: 1534.559343,1534.559343,1534.559343,1534.559343,1534.559343,1534.559343,1534.559343,1534.559343,1534.559342,1534.559342,
   ** Warning ** SimHVAC: Maximum iterations (20) exceeded for all HVAC loops, at ANNUAL, 03/31 23:15 - 23:30
   **   ~~~   ** The solution for one or more of the Air Loop HVAC systems did not appear to converge
   **   ~~~   ** Air System Named = CENTRAL SYSTEM did not converge for mass flow rate
   **   ~~~   ** Check values should be zero. Most Recent values listed first.
   **   ~~~   ** Demand-to-Supply interface mass flow rate check value iteration history trace: 5.398064E-002,5.398064E-002,5.398064E-002,5.398064E-002,5.398064E-002,5.398064E-002,5.398064E-002,5.398064E-002,5.398064E-002,5.398064E-002,
   **   ~~~   ** Supply-to-demand interface deck 1 mass flow rate check value iteration history trace: 5.398064E-002,5.398064E-002,5.398064E-002,5.398064E-002,5.398064E-002,5.398064E-002,5.398064E-002,5.398064E-002,5.398064E-002,5.398064E-002,
   **   ~~~   ** Air System Named = CENTRAL SYSTEM did not converge for energy
   **   ~~~   ** Check values should be zero. Most Recent values listed first.
   **   ~~~   ** Demand-to-Supply interface energy check value iteration history trace: 995.042379,995.042379,995.042379,995.042379,995.042379,995.042379,995.042379,995.042379,995.042379,995.042379,
   **   ~~~   ** Supply-to-demand interface deck 1 energy check value iteration history trace: 1715.462200,1715.462200,1715.462200,1715.462200,1715.462200,1715.462200,1715.462200,1715.462200,1715.462200,1715.462200,
   ** Warning ** SimHVAC: Maximum iterations (20) exceeded for all HVAC loops, at ANNUAL, 04/06 00:00 - 00:08
   **   ~~~   ** The solution for one or more of the Air Loop HVAC systems did not appear to converge
   **   ~~~   ** Air System Named = CENTRAL SYSTEM did not converge for mass flow rate
   **   ~~~   ** Check values should be zero. Most Recent values listed first.
   **   ~~~   ** Demand-to-Supply interface mass flow rate check value iteration history trace: 6.954782E-002,6.954782E-002,6.954782E-002,6.954782E-002,6.954782E-002,6.954782E-002,6.954782E-002,6.954782E-002,6.954782E-002,6.954782E-002,
   **   ~~~   ** Supply-to-demand interface deck 1 mass flow rate check value iteration history trace: 6.954782E-002,6.954782E-002,6.954782E-002,6.954782E-002,6.954782E-002,6.954782E-002,6.954782E-002,6.954782E-002,6.954782E-002,6.954782E-002,
   **   ~~~   ** Air System Named = CENTRAL SYSTEM did not converge for energy
   **   ~~~   ** Check values should be zero. Most Recent values listed first.
   **   ~~~   ** Demand-to-Supply interface energy check value iteration history trace: 1304.564712,1304.564712,1304.564712,1304.564712,1304.564712,1304.564712,1304.564711,1304.564711,1304.564711,1304.564711,
   **   ~~~   ** Supply-to-demand interface deck 1 energy check value iteration history trace: 2100.213915,2100.213915,2100.213915,2100.213914,2100.213914,2100.213914,2100.213914,2100.213914,2100.213914,2100.213914,
   ** Warning ** SimHVAC: Maximum iterations (20) exceeded for all HVAC loops, at ANNUAL, 04/09 08:48 - 08:51
   **   ~~~   ** The solution for one or more of the Air Loop HVAC systems did not appear to converge
   **   ~~~   ** Air System Named = CENTRAL SYSTEM did not converge for mass flow rate
   **   ~~~   ** Check values should be zero. Most Recent values listed first.
   **   ~~~   ** Demand-to-Supply interface mass flow rate check value iteration history trace: 8.409147E-002,8.409147E-002,8.409147E-002,8.409147E-002,8.409147E-002,8.409147E-002,8.409147E-002,8.409147E-002,8.409147E-002,8.409147E-002,
   **   ~~~   ** Supply-to-demand interface deck 1 mass flow rate check value iteration history trace: 8.409147E-002,8.409147E-002,8.409147E-002,8.409147E-002,8.409147E-002,8.409147E-002,8.409147E-002,8.409147E-002,8.409147E-002,8.409147E-002,
   **   ~~~   ** Air System Named = CENTRAL SYSTEM did not converge for energy
   **   ~~~   ** Check values should be zero. Most Recent values listed first.
   **   ~~~   ** Demand-to-Supply interface energy check value iteration history trace: 1666.672224,1666.672224,1666.672224,1666.672224,1666.672224,1666.672224,1666.672223,1666.672223,1666.672223,1666.672223,
   **   ~~~   ** Supply-to-demand interface deck 1 energy check value iteration history trace: 2739.291773,2739.291773,2739.291773,2739.291773,2739.291773,2739.291772,2739.291772,2739.291772,2739.291772,2739.291772,
   ** Warning ** SimHVAC: Maximum iterations (20) exceeded for all HVAC loops, at ANNUAL, 04/14 08:00 - 08:03
   **   ~~~   ** The solution for one or more of the Air Loop HVAC systems did not appear to converge
   **   ~~~   ** Air System Named = CENTRAL SYSTEM did not converge for mass flow rate
   **   ~~~   ** Check values should be zero. Most Recent values listed first.
   **   ~~~   ** Demand-to-Supply interface mass flow rate check value iteration history trace: 4.807384E-002,4.807384E-002,4.807384E-002,4.807384E-002,4.807384E-002,4.807384E-002,4.807384E-002,4.807384E-002,4.807384E-002,4.807384E-002,
   **   ~~~   ** Supply-to-demand interface deck 1 mass flow rate check value iteration history trace: 4.807384E-002,4.807384E-002,4.807384E-002,4.807384E-002,4.807384E-002,4.807384E-002,4.807384E-002,4.807384E-002,4.807384E-002,4.807384E-002,
   **   ~~~   ** Air System Named = CENTRAL SYSTEM did not converge for energy
   **   ~~~   ** Check values should be zero. Most Recent values listed first.
   **   ~~~   ** Demand-to-Supply interface energy check value iteration history trace: 952.731535,952.731535,952.731535,952.731535,952.731535,952.731535,952.731535,952.731535,952.731535,952.731535,
   **   ~~~   ** Supply-to-demand interface deck 1 energy check value iteration history trace: 1820.902459,1820.902459,1820.902459,1820.902459,1820.902459,1820.902459,1820.902459,1820.902459,1820.902459,1820.902458,
   ** Warning ** SimHVAC: Maximum iterations (20) exceeded for all HVAC loops, at ANNUAL, 04/14 09:45 - 09:49
   **   ~~~   ** The solution for one or more of the Air Loop HVAC systems did not appear to converge
   **   ~~~   ** Air System Named = CENTRAL SYSTEM did not converge for mass flow rate
   **   ~~~   ** Check values should be zero. Most Recent values listed first.
   **   ~~~   ** Demand-to-Supply interface mass flow rate check value iteration history trace: 5.696721E-002,5.696721E-002,5.696721E-002,5.696721E-002,5.696721E-002,5.696721E-002,5.696721E-002,5.696721E-002,5.696721E-002,5.696721E-002,
   **   ~~~   ** Supply-to-demand interface deck 1 mass flow rate check value iteration history trace: 5.696721E-002,5.696721E-002,5.696721E-002,5.696721E-002,5.696721E-002,5.696721E-002,5.696721E-002,5.696721E-002,5.696721E-002,5.696721E-002,
   **   ~~~   ** Air System Named = CENTRAL SYSTEM did not converge for energy
   **   ~~~   ** Check values should be zero. Most Recent values listed first.
   **   ~~~   ** Demand-to-Supply interface energy check value iteration history trace: 1128.168182,1128.168182,1128.168182,1128.168182,1128.168182,1128.168182,1128.168182,1128.168182,1128.168182,1128.168182,
   **   ~~~   ** Supply-to-demand interface deck 1 energy check value iteration history trace: 2213.870812,2213.870812,2213.870812,2213.870812,2213.870811,2213.870811,2213.870811,2213.870811,2213.870811,2213.870811,
   ************* Simulation Error Summary *************
   ** Warning ** The following Report Variables were requested but not generated -- check.rdd file
   **   ~~~   ** Either the IDF did not contain these elements, the variable name is misspelled,
   **   ~~~   ** or the requested variable is an advanced output which requires Output : Diagnostics, DisplayAdvancedReportVariables;
   ************* Key=*, VarName=BASEBOARD TOTAL HEATING ENERGY, Frequency=
   ************* Key=*, VarName=WATER HEATER NATURALGAS ENERGY, Frequency=
   ************* Key=*, VarName=COOLING COIL TOTAL HEATING ENERGY, Frequency=
   ************* There are 34 unused schedules in input.
   ************* There are 388 unused week schedules in input.
   ************* There are 396 unused day schedules in input.
   ************* Use Output:Diagnostics,DisplayUnusedSchedules; to see them.
   *************
   ************* ===== Recurring Error Summary =====
   ************* The following recurring error messages occurred.
   *************
   *************  ** Warning ** "TOTAL HOT WATER LOAD" - Target water temperature should be less than or equal to the hot water temperature error continues...
   *************  **   ~~~   **   This error occurred 161485 total times;
   *************  **   ~~~   **   during Warmup 0 times;
   *************  **   ~~~   **   during Sizing 0 times.
   *************  **   ~~~   **   Max=16.705336  Min=1.496160E-004
   *************
   *************  ** Warning ** SimHVAC: Exceeding Maximum iterations for all HVAC loops, during ANNUAL continues
   *************  **   ~~~   **   This error occurred 19 total times;
   *************  **   ~~~   **   during Warmup 0 times;
   *************  **   ~~~   **   during Sizing 0 times.
   *************
   *************
   ************* ===== Final Error Summary =====
   ************* The following error categories occurred.  Consider correcting or noting.
   ************* Nominally Unused Constructions
   ************* ..The nominally unused constructions warning is provided to alert you to potential conditions that can cause
   ************* ..extra time during simulation. Each construction is calculated by the algorithm indicated in the HeatBalanceAlgorithm
   ************* ..object. You may remove the constructions indicated (when you use the DisplayExtraWarnings option).
   *************
   ************* EnergyPlus Warmup Error Summary. During Warmup: 1 Warning; 0 Severe Errors.
   ************* EnergyPlus Sizing Error Summary. During Sizing: 4 Warning; 0 Severe Errors.
   ************* EnergyPlus Completed Successfully-- 161536 Warning; 0 Severe Errors; Elapsed Time=00hr 01min 21.29sec
