Program Version,EnergyPlus, Version 22.2.0-c249759bad, YMD=2023.09.01 18:53,
   ************* Beginning Zone Sizing Calculations
   ** Warning ** ProcessScheduleInput: Schedule:Constant="ALWAYS ON DISCRETE", Schedule Type Limits Name="ONOFF" not found -- will not be validated
   ** Warning ** Foundation:Kiva="KIVA FOUNDATION", no Interior Horizontal Insulation Material Name defined
   **   ~~~   ** Interior Horizontal Insulation Depth will not be used.
   ** Warning ** CheckUsedConstructions: There are 15 nominally unused constructions in input.
   **   ~~~   ** Each Unused construction is shown.
   ************* Construction=INTERIOR FLOOR
   ************* Construction=INTERIOR WINDOW
   ************* Construction=EXTERIOR DOOR
   ************* Construction=INTERIOR DOOR
   ************* Construction=GABLE CONSTRUCTION
   ************* Construction=CRAWL_FLOOR
   ************* Construction=INSULATED PIPE
   ************* Construction=PLAIN PIPE
   ************* Construction=TDD PIPE
   ************* Construction=TDD DOME
   ************* Construction=TDD DIFFUSER
   ************* Construction=CRAWL WALL
   ************* Construction=CEILING-FLOOR-LAYER
   ************* Construction=SLAB CONSTRUCTION W FULL R10 INSULATION
   ************* Construction=SLAB CONSTRUCTION W FULL R5 INSULATION
   ** Warning ** GetDXCoils: Coil:Heating:DX:SingleSpeed="DX_HEATING_COIL" curve values
   **   ~~~   ** ... Defrost Energy Input Ratio Function of Temperature Curve Name = DEFROSTEIR output is not equal to 1.0 (+ or - 10%) at rated conditions.
   **   ~~~   ** ... Curve output at rated conditions = 0.152
   ************* Beginning System Sizing Calculations
   ************* Beginning Plant Sizing Calculations
   ** Warning ** SizeDXCoil Coil:Cooling:DX:SingleSpeed DX_COOLING_COIL
   **   ~~~   ** ...Gross Rated Total Cooling Capacity [W] will be limited by the maximum rated volume flow per rated total capacity ratio.
   **   ~~~   ** ...DX coil volume flow rate ( m3/s ) = 0.422414
   **   ~~~   ** ...Requested capacity ( W ) = 6584.637
   **   ~~~   ** ...Requested flow/capacity ratio ( m3/s/W ) = 6.415E-005
   **   ~~~   ** ...Maximum flow/capacity ratio ( m3/s/W ) = 6.041E-005
   **   ~~~   ** ...Adjusted capacity ( W ) = 6992.459
   ** Warning ** SizeDXCoil Coil:Heating:DX:SingleSpeed DX_HEATING_COIL
   **   ~~~   ** ...Gross Rated Heating Capacity [W] will be limited by the maximum rated volume flow per rated total capacity ratio.
   **   ~~~   ** ...DX coil volume flow rate ( m3/s ) = 0.422414
   **   ~~~   ** ...Requested capacity ( W ) = 6992.459
   **   ~~~   ** ...Requested flow/capacity ratio ( m3/s/W ) = 6.041E-005
   **   ~~~   ** ...Maximum flow/capacity ratio ( m3/s/W ) = 6.041E-005
   **   ~~~   ** ...Adjusted capacity ( W ) = 6992.459
   ** Warning ** Coil:WaterHeating:AirToWaterHeatPump:Wrapped "HEAT PUMP WATER HEATER EVAPORATOR": Rated air volume flow rate per watt of rated total water heating capacity is out of range
   **   ~~~   ** Min Rated Vol Flow Per Watt=[4.027E-005], Rated Vol Flow Per Watt=[1.510E-004], Max Rated Vol Flow Per Watt=[8.056E-005]. See Input-Output Reference Manual for valid range.
   ************* SizeFan: : Potential issue with equipment sizing for Fan:OnOff HEAT PUMP WATER HEATER FAN
   **   ~~~   ** User-Specified Maximum Flow Rate [m3/s] = 0.22653
   **   ~~~   ** differs from Design Size Maximum Flow Rate [m3/s] = 7.55250E-002
   **   ~~~   ** This may, or may not, indicate mismatched component sizes.
   **   ~~~   ** Verify that the value entered is intended and is consistent with other components.
   ** Warning ** Water heater = WATER HEATER TANK:  Recovery Efficiency and Energy Factor could not be calculated during the test for standard ratings
   **   ~~~   ** Setpoint was never recovered and/or heater never turned on
   ** Warning ** Check input. Pump nominal power or motor efficiency is set to 0, for pump=MAINS PRESSURE
   ** Warning ** Output:Meter: invalid Key Name="ELECTRIC_RANGE:INTERIOREQUIPMENT:ELECTRICITY" - not found.
   ** Warning ** Output:Meter: invalid Key Name="ELECTRIC_DRYER:INTERIOREQUIPMENT:ELECTRICITY" - not found.
   ** Warning ** Output:Meter: invalid Key Name="HEATRECOVERY:ELECTRICITY" - not found.
   ** Warning ** Output:Meter: invalid Key Name="HEATING:NATURALGAS" - not found.
   ** Warning ** Output:Meter: invalid Key Name="WATERSYSTEMS:NATURALGAS" - not found.
   ** Warning ** Output:Meter: invalid Key Name="PROPANE:FACILITY" - not found.
   ** Warning ** Output:Meter: invalid Key Name="HEATING:PROPANE" - not found.
   ************* Testing Individual Branch Integrity
   ************* All Branches passed integrity testing
   ************* Testing Individual Supply Air Path Integrity
   ************* All Supply Air Paths passed integrity testing
   ************* Testing Individual Return Air Path Integrity
   ************* All Return Air Paths passed integrity testing
   ************* No node connection errors were found.
   ************* Beginning Simulation
   ** Warning ** AirflowNetwork::Solver::validate_distribution: Heat pump water heater is simulated along with an AirflowNetwork but is not included in the AirflowNetwork.
   ** Warning ** CalcEquipmentFlowRates: "TOTAL HOT WATER LOAD" - Target water temperature is greater than the hot water temperature by (0.63 C)
   **   ~~~   **  Environment=EXTREME_WINTER, at Simulation time=01/06 03:45 - 04:00
   **   ~~~   ** ...target water temperature     = 53.33 C
   **   ~~~   ** ...hot water temperature        = 52.70 C
   **   ~~~   ** ...Target water temperature should be less than or equal to the hot water temperature. Verify temperature setpoints and schedules.
   ** Warning ** SimHVAC: Maximum iterations (20) exceeded for all HVAC loops, at EXTREME_SUMMER, 07/17 01:45 - 02:00
   **   ~~~   ** The solution for one or more of the Air Loop HVAC systems did not appear to converge
   **   ~~~   ** Air System Named = CENTRAL SYSTEM did not converge for mass flow rate
   **   ~~~   ** Check values should be zero. Most Recent values listed first.
   **   ~~~   ** Demand-to-Supply interface mass flow rate check value iteration history trace: 8.838151E-002,8.838151E-002,8.838151E-002,8.838151E-002,8.838151E-002,8.838151E-002,8.838151E-002,8.838151E-002,8.838151E-002,8.838151E-002,
   **   ~~~   ** Supply-to-demand interface deck 1 mass flow rate check value iteration history trace: 8.838151E-002,8.838151E-002,8.838151E-002,8.838151E-002,8.838151E-002,8.838151E-002,8.838151E-002,8.838151E-002,8.838151E-002,8.838151E-002,
   **   ~~~   ** Air System Named = CENTRAL SYSTEM did not converge for energy
   **   ~~~   ** Check values should be zero. Most Recent values listed first.
   **   ~~~   ** Demand-to-Supply interface energy check value iteration history trace: 2182.642213,2182.642214,2182.642215,2182.642216,2182.642217,2182.642217,2182.642218,2182.642219,2182.642220,2182.642221,
   **   ~~~   ** Supply-to-demand interface deck 1 energy check value iteration history trace: 1129.240075,1129.240076,1129.240076,1129.240076,1129.240077,1129.240077,1129.240078,1129.240078,1129.240079,1129.240079,
   ** Warning ** SimHVAC: Maximum iterations (20) exceeded for all HVAC loops, at ANNUAL, 02/11 09:15 - 09:30
   **   ~~~   ** The solution for one or more of the Air Loop HVAC systems did not appear to converge
   **   ~~~   ** Air System Named = CENTRAL SYSTEM did not converge for mass flow rate
   **   ~~~   ** Check values should be zero. Most Recent values listed first.
   **   ~~~   ** Demand-to-Supply interface mass flow rate check value iteration history trace: 7.626583E-002,7.626583E-002,7.626583E-002,7.626583E-002,7.626583E-002,7.626583E-002,7.626583E-002,7.626583E-002,7.626583E-002,7.626583E-002,
   **   ~~~   ** Supply-to-demand interface deck 1 mass flow rate check value iteration history trace: 7.626583E-002,7.626583E-002,7.626583E-002,7.626583E-002,7.626583E-002,7.626583E-002,7.626583E-002,7.626583E-002,7.626583E-002,7.626583E-002,
   **   ~~~   ** Air System Named = CENTRAL SYSTEM did not converge for energy
   **   ~~~   ** Check values should be zero. Most Recent values listed first.
   **   ~~~   ** Demand-to-Supply interface energy check value iteration history trace: 1511.428964,1511.428964,1511.428964,1511.428964,1511.428964,1511.428964,1511.428964,1511.428964,1511.428963,1511.428963,
   **   ~~~   ** Supply-to-demand interface deck 1 energy check value iteration history trace: 2518.026344,2518.026344,2518.026344,2518.026344,2518.026344,2518.026344,2518.026343,2518.026343,2518.026343,2518.026343,
   ** Warning ** Temperature out of range [-100. to 200.] (PsyPsatFnTemp)
   **   ~~~   **  Routine=PsyTwbFnTdbWPb, Environment=ANNUAL, at Simulation time=02/17 12:00 - 12:04
   **   ~~~   **  Input Temperature=-297.93
   ** Warning ** SimHVAC: Maximum iterations (20) exceeded for all HVAC loops, at ANNUAL, 03/24 09:02 - 09:04
   **   ~~~   ** The solution for one or more of the Air Loop HVAC systems did not appear to converge
   **   ~~~   ** Air System Named = CENTRAL SYSTEM did not converge for mass flow rate
   **   ~~~   ** Check values should be zero. Most Recent values listed first.
   **   ~~~   ** Demand-to-Supply interface mass flow rate check value iteration history trace: 5.914583E-002,5.914583E-002,5.914583E-002,5.914583E-002,5.914583E-002,5.914583E-002,5.914583E-002,5.914583E-002,5.914583E-002,5.914583E-002,
   **   ~~~   ** Supply-to-demand interface deck 1 mass flow rate check value iteration history trace: 5.914583E-002,5.914583E-002,5.914583E-002,5.914583E-002,5.914583E-002,5.914583E-002,5.914583E-002,5.914583E-002,5.914583E-002,5.914583E-002,
   **   ~~~   ** Air System Named = CENTRAL SYSTEM did not converge for energy
   **   ~~~   ** Check values should be zero. Most Recent values listed first.
   **   ~~~   ** Demand-to-Supply interface energy check value iteration history trace: 1172.109425,1172.109425,1172.109425,1172.109425,1172.109425,1172.109425,1172.109425,1172.109425,1172.109425,1172.109425,
   **   ~~~   ** Supply-to-demand interface deck 1 energy check value iteration history trace: 2088.431979,2088.431978,2088.431978,2088.431978,2088.431978,2088.431978,2088.431978,2088.431978,2088.431978,2088.431978,
   ** Warning ** SimHVAC: Maximum iterations (20) exceeded for all HVAC loops, at ANNUAL, 04/04 20:15 - 20:30
   **   ~~~   ** The solution for one or more of the Air Loop HVAC systems did not appear to converge
   **   ~~~   ** Air System Named = CENTRAL SYSTEM did not converge for mass flow rate
   **   ~~~   ** Check values should be zero. Most Recent values listed first.
   **   ~~~   ** Demand-to-Supply interface mass flow rate check value iteration history trace: 6.515609E-002,6.515609E-002,6.515609E-002,6.515609E-002,6.515609E-002,6.515609E-002,6.515609E-002,6.515609E-002,6.515609E-002,6.515609E-002,
   **   ~~~   ** Supply-to-demand interface deck 1 mass flow rate check value iteration history trace: 6.515609E-002,6.515609E-002,6.515609E-002,6.515609E-002,6.515609E-002,6.515609E-002,6.515609E-002,6.515609E-002,6.515609E-002,6.515609E-002,
   **   ~~~   ** Air System Named = CENTRAL SYSTEM did not converge for energy
   **   ~~~   ** Check values should be zero. Most Recent values listed first.
   **   ~~~   ** Demand-to-Supply interface energy check value iteration history trace: 1294.183288,1294.183288,1294.183288,1294.183288,1294.183288,1294.183287,1294.183287,1294.183287,1294.183287,1294.183287,
   **   ~~~   ** Supply-to-demand interface deck 1 energy check value iteration history trace: 2177.069836,2177.069836,2177.069836,2177.069835,2177.069835,2177.069835,2177.069835,2177.069835,2177.069835,2177.069835,
   ** Warning ** SimHVAC: Maximum iterations (20) exceeded for all HVAC loops, at ANNUAL, 04/17 08:40 - 08:42
   **   ~~~   ** The solution for one or more of the Air Loop HVAC systems did not appear to converge
   **   ~~~   ** Air System Named = CENTRAL SYSTEM did not converge for mass flow rate
   **   ~~~   ** Check values should be zero. Most Recent values listed first.
   **   ~~~   ** Demand-to-Supply interface mass flow rate check value iteration history trace: 5.287651E-002,5.287651E-002,5.287651E-002,5.287651E-002,5.287651E-002,5.287651E-002,5.287651E-002,5.287651E-002,5.287651E-002,5.287651E-002,
   **   ~~~   ** Supply-to-demand interface deck 1 mass flow rate check value iteration history trace: 5.287651E-002,5.287651E-002,5.287651E-002,5.287651E-002,5.287651E-002,5.287651E-002,5.287651E-002,5.287651E-002,5.287651E-002,5.287651E-002,
   **   ~~~   ** Air System Named = CENTRAL SYSTEM did not converge for energy
   **   ~~~   ** Check values should be zero. Most Recent values listed first.
   **   ~~~   ** Demand-to-Supply interface energy check value iteration history trace: 1045.527587,1045.527587,1045.527587,1045.527587,1045.527587,1045.527587,1045.527587,1045.527587,1045.527587,1045.527587,
   **   ~~~   ** Supply-to-demand interface deck 1 energy check value iteration history trace: 1895.848972,1895.848972,1895.848972,1895.848972,1895.848972,1895.848972,1895.848972,1895.848972,1895.848971,1895.848971,
   ** Warning ** SimHVAC: Maximum iterations (20) exceeded for all HVAC loops, at ANNUAL, 05/06 07:57 - 08:00
   **   ~~~   ** The solution for one or more of the Air Loop HVAC systems did not appear to converge
   **   ~~~   ** Air System Named = CENTRAL SYSTEM did not converge for mass flow rate
   **   ~~~   ** Check values should be zero. Most Recent values listed first.
   **   ~~~   ** Demand-to-Supply interface mass flow rate check value iteration history trace: 0.283039,0.283039,0.283039,0.283039,0.283039,0.283039,0.283039,0.283039,0.283039,0.283039,
   **   ~~~   ** Supply-to-demand interface deck 1 mass flow rate check value iteration history trace: 0.283039,0.283039,0.283039,0.283039,0.283039,0.283039,0.283039,0.283039,0.283039,0.283039,
   **   ~~~   ** Air System Named = CENTRAL SYSTEM did not converge for energy
   **   ~~~   ** Check values should be zero. Most Recent values listed first.
   **   ~~~   ** Demand-to-Supply interface energy check value iteration history trace: 6713.300343,6713.300344,6713.300345,6713.300346,6713.300347,6713.300348,6713.300349,6713.300350,6713.300350,6713.300351,
   **   ~~~   ** Supply-to-demand interface deck 1 energy check value iteration history trace: 3096.997452,3096.997453,3096.997453,3096.997454,3096.997454,3096.997454,3096.997455,3096.997455,3096.997456,3096.997456,
   ** Warning ** SimHVAC: Maximum iterations (20) exceeded for all HVAC loops, at ANNUAL, 05/08 13:30 - 13:45
   **   ~~~   ** The solution for one or more of the Air Loop HVAC systems did not appear to converge
   **   ~~~   ** Air System Named = CENTRAL SYSTEM did not converge for mass flow rate
   **   ~~~   ** Check values should be zero. Most Recent values listed first.
   **   ~~~   ** Demand-to-Supply interface mass flow rate check value iteration history trace: 6.808262E-002,6.808262E-002,6.808262E-002,6.808262E-002,6.808262E-002,6.808262E-002,6.808262E-002,6.808262E-002,6.808262E-002,6.808262E-002,
   **   ~~~   ** Supply-to-demand interface deck 1 mass flow rate check value iteration history trace: 6.808262E-002,6.808262E-002,6.808262E-002,6.808262E-002,6.808262E-002,6.808262E-002,6.808262E-002,6.808262E-002,6.808262E-002,6.808262E-002,
   **   ~~~   ** Air System Named = CENTRAL SYSTEM did not converge for energy
   **   ~~~   ** Check values should be zero. Most Recent values listed first.
   **   ~~~   ** Demand-to-Supply interface energy check value iteration history trace: 1585.994969,1585.994969,1585.994969,1585.994969,1585.994969,1585.994969,1585.994969,1585.994969,1585.994969,1585.994969,
   **   ~~~   ** Supply-to-demand interface deck 1 energy check value iteration history trace: 620.725755,620.725755,620.725756,620.725756,620.725756,620.725756,620.725756,620.725756,620.725756,620.725756,
   ** Warning ** SimHVAC: Maximum iterations (20) exceeded for all HVAC loops, at ANNUAL, 05/08 19:53 - 20:00
   **   ~~~   ** The solution for one or more of the Air Loop HVAC systems did not appear to converge
   **   ~~~   ** Air System Named = CENTRAL SYSTEM did not converge for mass flow rate
   **   ~~~   ** Check values should be zero. Most Recent values listed first.
   **   ~~~   ** Demand-to-Supply interface mass flow rate check value iteration history trace: 0.171512,0.171512,0.171512,0.171512,0.171512,0.171512,0.171512,0.171512,0.171512,0.171512,
   **   ~~~   ** Supply-to-demand interface deck 1 mass flow rate check value iteration history trace: 0.171512,0.171512,0.171512,0.171512,0.171512,0.171512,0.171512,0.171512,0.171512,0.171512,
   **   ~~~   ** Air System Named = CENTRAL SYSTEM did not converge for energy
   **   ~~~   ** Check values should be zero. Most Recent values listed first.
   **   ~~~   ** Demand-to-Supply interface energy check value iteration history trace: 4096.836823,4096.836823,4096.836823,4096.836824,4096.836824,4096.836824,4096.836824,4096.836825,4096.836825,4096.836825,
   **   ~~~   ** Supply-to-demand interface deck 1 energy check value iteration history trace: 1599.230241,1599.230242,1599.230242,1599.230242,1599.230242,1599.230242,1599.230242,1599.230242,1599.230242,1599.230242,
   ** Warning ** SimHVAC: Maximum iterations (20) exceeded for all HVAC loops, at ANNUAL, 05/14 10:30 - 10:45
   **   ~~~   ** The solution for one or more of the Air Loop HVAC systems did not appear to converge
   **   ~~~   ** Air System Named = CENTRAL SYSTEM did not converge for mass flow rate
   **   ~~~   ** Check values should be zero. Most Recent values listed first.
   **   ~~~   ** Demand-to-Supply interface mass flow rate check value iteration history trace: 0.127994,0.127994,0.127994,0.127994,0.127994,0.127994,0.127994,0.127994,0.127994,0.127994,
   **   ~~~   ** Supply-to-demand interface deck 1 mass flow rate check value iteration history trace: 0.127994,0.127994,0.127994,0.127994,0.127994,0.127994,0.127994,0.127994,0.127994,0.127994,
   **   ~~~   ** Air System Named = CENTRAL SYSTEM did not converge for energy
   **   ~~~   ** Check values should be zero. Most Recent values listed first.
   **   ~~~   ** Demand-to-Supply interface energy check value iteration history trace: 3048.064291,3048.064291,3048.064292,3048.064292,3048.064292,3048.064292,3048.064292,3048.064293,3048.064293,3048.064293,
   **   ~~~   ** Supply-to-demand interface deck 1 energy check value iteration history trace: 1567.188225,1567.188225,1567.188225,1567.188225,1567.188225,1567.188225,1567.188225,1567.188226,1567.188226,1567.188226,
   ** Warning ** SimHVAC: Maximum iterations (20) exceeded for all HVAC loops, at ANNUAL, 10/18 08:00 - 08:15
   **   ~~~   ** The solution for one or more of the Air Loop HVAC systems did not appear to converge
   **   ~~~   ** Air System Named = CENTRAL SYSTEM did not converge for mass flow rate
   **   ~~~   ** Check values should be zero. Most Recent values listed first.
   **   ~~~   ** Demand-to-Supply interface mass flow rate check value iteration history trace: 8.178659E-002,8.178659E-002,8.178659E-002,8.178659E-002,8.178659E-002,8.178659E-002,8.178659E-002,8.178659E-002,8.178659E-002,8.178659E-002,
   **   ~~~   ** Supply-to-demand interface deck 1 mass flow rate check value iteration history trace: 8.178659E-002,8.178659E-002,8.178659E-002,8.178659E-002,8.178659E-002,8.178659E-002,8.178659E-002,8.178659E-002,8.178659E-002,8.178659E-002,
   **   ~~~   ** Air System Named = CENTRAL SYSTEM did not converge for energy
   **   ~~~   ** Check values should be zero. Most Recent values listed first.
   **   ~~~   ** Demand-to-Supply interface energy check value iteration history trace: 1620.693223,1620.693223,1620.693223,1620.693223,1620.693222,1620.693222,1620.693222,1620.693222,1620.693222,1620.693222,
   **   ~~~   ** Supply-to-demand interface deck 1 energy check value iteration history trace: 2702.537561,2702.537561,2702.537561,2702.537560,2702.537560,2702.537560,2702.537560,2702.537560,2702.537560,2702.537560,
   ** Warning ** SimHVAC: Maximum iterations (20) exceeded for all HVAC loops, at ANNUAL, 10/26 07:45 - 07:49
   **   ~~~   ** The solution for one or more of the Air Loop HVAC systems did not appear to converge
   **   ~~~   ** Air System Named = CENTRAL SYSTEM did not converge for mass flow rate
   **   ~~~   ** Check values should be zero. Most Recent values listed first.
   **   ~~~   ** Demand-to-Supply interface mass flow rate check value iteration history trace: 6.798779E-002,6.798779E-002,6.798779E-002,6.798779E-002,6.798779E-002,6.798779E-002,6.798779E-002,6.798779E-002,6.798779E-002,6.798779E-002,
   **   ~~~   ** Supply-to-demand interface deck 1 mass flow rate check value iteration history trace: 6.798779E-002,6.798779E-002,6.798779E-002,6.798779E-002,6.798779E-002,6.798779E-002,6.798779E-002,6.798779E-002,6.798779E-002,6.798779E-002,
   **   ~~~   ** Air System Named = CENTRAL SYSTEM did not converge for energy
   **   ~~~   ** Check values should be zero. Most Recent values listed first.
   **   ~~~   ** Demand-to-Supply interface energy check value iteration history trace: 1342.801344,1342.801344,1342.801344,1342.801344,1342.801344,1342.801344,1342.801343,1342.801343,1342.801343,1342.801343,
   **   ~~~   ** Supply-to-demand interface deck 1 energy check value iteration history trace: 2329.501283,2329.501283,2329.501283,2329.501282,2329.501282,2329.501282,2329.501282,2329.501282,2329.501282,2329.501282,
   ** Warning ** SimHVAC: Maximum iterations (20) exceeded for all HVAC loops, at ANNUAL, 11/02 08:40 - 08:45
   **   ~~~   ** The solution for one or more of the Air Loop HVAC systems did not appear to converge
   **   ~~~   ** Air System Named = CENTRAL SYSTEM did not converge for mass flow rate
   **   ~~~   ** Check values should be zero. Most Recent values listed first.
   **   ~~~   ** Demand-to-Supply interface mass flow rate check value iteration history trace: 1.628796E-002,1.628796E-002,1.628796E-002,1.628796E-002,1.628796E-002,1.628796E-002,1.628796E-002,1.628796E-002,1.628796E-002,1.628796E-002,
   **   ~~~   ** Supply-to-demand interface deck 1 mass flow rate check value iteration history trace: 1.628796E-002,1.628796E-002,1.628796E-002,1.628796E-002,1.628796E-002,1.628796E-002,1.628796E-002,1.628796E-002,1.628796E-002,1.628796E-002,
   **   ~~~   ** Air System Named = CENTRAL SYSTEM did not converge for energy
   **   ~~~   ** Check values should be zero. Most Recent values listed first.
   **   ~~~   ** Demand-to-Supply interface energy check value iteration history trace: 322.761709,322.761709,322.761709,322.761709,322.761709,322.761709,322.761709,322.761709,322.761709,322.761709,
   **   ~~~   ** Supply-to-demand interface deck 1 energy check value iteration history trace: 547.264340,547.264340,547.264340,547.264340,547.264340,547.264340,547.264340,547.264340,547.264340,547.264340,
   ** Warning ** SimHVAC: Maximum iterations (20) exceeded for all HVAC loops, at ANNUAL, 11/24 23:08 - 23:15
   **   ~~~   ** The solution for one or more of the Air Loop HVAC systems did not appear to converge
   **   ~~~   ** Air System Named = CENTRAL SYSTEM did not converge for mass flow rate
   **   ~~~   ** Check values should be zero. Most Recent values listed first.
   **   ~~~   ** Demand-to-Supply interface mass flow rate check value iteration history trace: 5.093933E-002,5.093933E-002,5.093933E-002,5.093933E-002,5.093933E-002,5.093933E-002,5.093933E-002,5.093933E-002,5.093933E-002,5.093933E-002,
   **   ~~~   ** Supply-to-demand interface deck 1 mass flow rate check value iteration history trace: 5.093933E-002,5.093933E-002,5.093933E-002,5.093933E-002,5.093933E-002,5.093933E-002,5.093933E-002,5.093933E-002,5.093933E-002,5.093933E-002,
   **   ~~~   ** Air System Named = CENTRAL SYSTEM did not converge for energy
   **   ~~~   ** Check values should be zero. Most Recent values listed first.
   **   ~~~   ** Demand-to-Supply interface energy check value iteration history trace: 952.405768,952.405767,952.405767,952.405767,952.405767,952.405767,952.405767,952.405767,952.405767,952.405767,
   **   ~~~   ** Supply-to-demand interface deck 1 energy check value iteration history trace: 1739.306270,1739.306270,1739.306270,1739.306270,1739.306270,1739.306270,1739.306270,1739.306270,1739.306270,1739.306270,
   ** Warning ** SimHVAC: Maximum iterations (20) exceeded for all HVAC loops, at ANNUAL, 12/26 19:10 - 19:15
   **   ~~~   ** The solution for one or more of the Air Loop HVAC systems did not appear to converge
   **   ~~~   ** Air System Named = CENTRAL SYSTEM did not converge for mass flow rate
   **   ~~~   ** Check values should be zero. Most Recent values listed first.
   **   ~~~   ** Demand-to-Supply interface mass flow rate check value iteration history trace: 9.073991E-002,9.073991E-002,9.073991E-002,9.073991E-002,9.073991E-002,9.073991E-002,9.073991E-002,9.073991E-002,9.073991E-002,9.073991E-002,
   **   ~~~   ** Supply-to-demand interface deck 1 mass flow rate check value iteration history trace: 9.073991E-002,9.073991E-002,9.073991E-002,9.073991E-002,9.073991E-002,9.073991E-002,9.073991E-002,9.073991E-002,9.073991E-002,9.073991E-002,
   **   ~~~   ** Air System Named = CENTRAL SYSTEM did not converge for energy
   **   ~~~   ** Check values should be zero. Most Recent values listed first.
   **   ~~~   ** Demand-to-Supply interface energy check value iteration history trace: 1799.326632,1799.326632,1799.326632,1799.326631,1799.326631,1799.326631,1799.326631,1799.326631,1799.326631,1799.326631,
   **   ~~~   ** Supply-to-demand interface deck 1 energy check value iteration history trace: 2750.815611,2750.815611,2750.815610,2750.815610,2750.815610,2750.815610,2750.815610,2750.815610,2750.815610,2750.815609,
   ************* Simulation Error Summary *************
   ** Warning ** The following Report Variables were requested but not generated -- check.rdd file
   **   ~~~   ** Either the IDF did not contain these elements, the variable name is misspelled,
   **   ~~~   ** or the requested variable is an advanced output which requires Output : Diagnostics, DisplayAdvancedReportVariables;
   ************* Key=*, VarName=BASEBOARD TOTAL HEATING ENERGY, Frequency=
   ************* Key=*, VarName=WATER HEATER NATURALGAS ENERGY, Frequency=
   ************* Key=*, VarName=COOLING COIL TOTAL HEATING ENERGY, Frequency=
   ************* There are 34 unused schedules in input.
   ************* There are 388 unused week schedules in input.
   ************* There are 396 unused day schedules in input.
   ************* Use Output:Diagnostics,DisplayUnusedSchedules; to see them.
   *************
   ************* ===== Recurring Error Summary =====
   ************* The following recurring error messages occurred.
   *************
   *************  ** Warning ** "TOTAL HOT WATER LOAD" - Target water temperature should be less than or equal to the hot water temperature error continues...
   *************  **   ~~~   **   This error occurred 63775 total times;
   *************  **   ~~~   **   during Warmup 0 times;
   *************  **   ~~~   **   during Sizing 0 times.
   *************  **   ~~~   **   Max=6.655879  Min=1.491125E-004
   *************
   *************  ** Warning ** Temperature out of range [-100. to 200.] (PsyPsatFnTemp)
   *************  **   ~~~   **   This error occurred 1 total times;
   *************  **   ~~~   **   during Warmup 0 times;
   *************  **   ~~~   **   during Sizing 0 times.
   *************  **   ~~~   **   Max=-297.932968 C  Min=-297.932968 C
   *************
   *************
   ************* ===== Final Error Summary =====
   ************* The following error categories occurred.  Consider correcting or noting.
   ************* Nominally Unused Constructions
   ************* ..The nominally unused constructions warning is provided to alert you to potential conditions that can cause
   ************* ..extra time during simulation. Each construction is calculated by the algorithm indicated in the HeatBalanceAlgorithm
   ************* ..object. You may remove the constructions indicated (when you use the DisplayExtraWarnings option).
   *************
   ************* EnergyPlus Warmup Error Summary. During Warmup: 1 Warning; 0 Severe Errors.
   ************* EnergyPlus Sizing Error Summary. During Sizing: 4 Warning; 0 Severe Errors.
   ************* EnergyPlus Completed Successfully-- 63809 Warning; 0 Severe Errors; Elapsed Time=00hr 01min 36.84sec
