Program Version,EnergyPlus, Version 22.2.0-c249759bad, YMD=2023.09.01 19:14,
   ************* Beginning Zone Sizing Calculations
   ** Warning ** ProcessScheduleInput: Schedule:Constant="ALWAYS ON DISCRETE", Schedule Type Limits Name="ONOFF" not found -- will not be validated
   ** Warning ** Foundation:Kiva="KIVA FOUNDATION", no Interior Horizontal Insulation Material Name defined
   **   ~~~   ** Interior Horizontal Insulation Depth will not be used.
   ** Warning ** CheckUsedConstructions: There are 15 nominally unused constructions in input.
   **   ~~~   ** Each Unused construction is shown.
   ************* Construction=INTERIOR FLOOR
   ************* Construction=INTERIOR WINDOW
   ************* Construction=EXTERIOR DOOR
   ************* Construction=INTERIOR DOOR
   ************* Construction=GABLE CONSTRUCTION
   ************* Construction=CRAWL_FLOOR
   ************* Construction=INSULATED PIPE
   ************* Construction=PLAIN PIPE
   ************* Construction=TDD PIPE
   ************* Construction=TDD DOME
   ************* Construction=TDD DIFFUSER
   ************* Construction=CRAWL WALL
   ************* Construction=CEILING-FLOOR-LAYER
   ************* Construction=SLAB CONSTRUCTION W FULL R10 INSULATION
   ************* Construction=SLAB CONSTRUCTION W FULL R5 INSULATION
   ** Warning ** GetDXCoils: Coil:Heating:DX:SingleSpeed="DX_HEATING_COIL" curve values
   **   ~~~   ** ... Defrost Energy Input Ratio Function of Temperature Curve Name = DEFROSTEIR output is not equal to 1.0 (+ or - 10%) at rated conditions.
   **   ~~~   ** ... Curve output at rated conditions = 0.152
   ************* Beginning System Sizing Calculations
   ************* Beginning Plant Sizing Calculations
   ** Warning ** SizeDXCoil Coil:Cooling:DX:SingleSpeed DX_COOLING_COIL
   **   ~~~   ** ...Gross Rated Total Cooling Capacity [W] will be limited by the maximum rated volume flow per rated total capacity ratio.
   **   ~~~   ** ...DX coil volume flow rate ( m3/s ) = 0.442399
   **   ~~~   ** ...Requested capacity ( W ) = 7243.666
   **   ~~~   ** ...Requested flow/capacity ratio ( m3/s/W ) = 6.107E-005
   **   ~~~   ** ...Maximum flow/capacity ratio ( m3/s/W ) = 6.041E-005
   **   ~~~   ** ...Adjusted capacity ( W ) = 7323.285
   ** Warning ** Coil:WaterHeating:AirToWaterHeatPump:Wrapped "HEAT PUMP WATER HEATER EVAPORATOR": Rated air volume flow rate per watt of rated total water heating capacity is out of range
   **   ~~~   ** Min Rated Vol Flow Per Watt=[4.027E-005], Rated Vol Flow Per Watt=[1.510E-004], Max Rated Vol Flow Per Watt=[8.056E-005]. See Input-Output Reference Manual for valid range.
   ************* SizeFan: : Potential issue with equipment sizing for Fan:OnOff HEAT PUMP WATER HEATER FAN
   **   ~~~   ** User-Specified Maximum Flow Rate [m3/s] = 0.22653
   **   ~~~   ** differs from Design Size Maximum Flow Rate [m3/s] = 7.55250E-002
   **   ~~~   ** This may, or may not, indicate mismatched component sizes.
   **   ~~~   ** Verify that the value entered is intended and is consistent with other components.
   ** Warning ** Water heater = WATER HEATER TANK:  Recovery Efficiency and Energy Factor could not be calculated during the test for standard ratings
   **   ~~~   ** Setpoint was never recovered and/or heater never turned on
   ** Warning ** Check input. Pump nominal power or motor efficiency is set to 0, for pump=MAINS PRESSURE
   ** Warning ** Output:Meter: invalid Key Name="ELECTRIC_RANGE:INTERIOREQUIPMENT:ELECTRICITY" - not found.
   ** Warning ** Output:Meter: invalid Key Name="ELECTRIC_DRYER:INTERIOREQUIPMENT:ELECTRICITY" - not found.
   ** Warning ** Output:Meter: invalid Key Name="HEATRECOVERY:ELECTRICITY" - not found.
   ** Warning ** Output:Meter: invalid Key Name="HEATING:NATURALGAS" - not found.
   ** Warning ** Output:Meter: invalid Key Name="WATERSYSTEMS:NATURALGAS" - not found.
   ** Warning ** Output:Meter: invalid Key Name="PROPANE:FACILITY" - not found.
   ** Warning ** Output:Meter: invalid Key Name="HEATING:PROPANE" - not found.
   ************* Testing Individual Branch Integrity
   ************* All Branches passed integrity testing
   ************* Testing Individual Supply Air Path Integrity
   ************* All Supply Air Paths passed integrity testing
   ************* Testing Individual Return Air Path Integrity
   ************* All Return Air Paths passed integrity testing
   ************* No node connection errors were found.
   ************* Beginning Simulation
   ** Warning ** AirflowNetwork::Solver::validate_distribution: Heat pump water heater is simulated along with an AirflowNetwork but is not included in the AirflowNetwork.
   ** Warning ** CalcEquipmentFlowRates: "TOTAL HOT WATER LOAD" - Target water temperature is greater than the hot water temperature by (0.86 C)
   **   ~~~   **  Environment=EXTREME_WINTER, at Simulation time=01/13 06:45 - 07:00
   **   ~~~   ** ...target water temperature     = 53.33 C
   **   ~~~   ** ...hot water temperature        = 52.47 C
   **   ~~~   ** ...Target water temperature should be less than or equal to the hot water temperature. Verify temperature setpoints and schedules.
   ** Warning ** SimHVAC: Maximum iterations (20) exceeded for all HVAC loops, at ANNUAL, 01/03 10:45 - 11:00
   **   ~~~   ** The solution for one or more of the Air Loop HVAC systems did not appear to converge
   **   ~~~   ** Air System Named = CENTRAL SYSTEM did not converge for mass flow rate
   **   ~~~   ** Check values should be zero. Most Recent values listed first.
   **   ~~~   ** Demand-to-Supply interface mass flow rate check value iteration history trace: 6.468190E-002,6.468190E-002,6.468190E-002,6.468190E-002,6.468190E-002,6.468190E-002,6.468190E-002,6.468190E-002,6.468190E-002,6.468190E-002,
   **   ~~~   ** Supply-to-demand interface deck 1 mass flow rate check value iteration history trace: 6.468190E-002,6.468190E-002,6.468190E-002,6.468190E-002,6.468190E-002,6.468190E-002,6.468190E-002,6.468190E-002,6.468190E-002,6.468190E-002,
   **   ~~~   ** Air System Named = CENTRAL SYSTEM did not converge for energy
   **   ~~~   ** Check values should be zero. Most Recent values listed first.
   **   ~~~   ** Demand-to-Supply interface energy check value iteration history trace: 1281.731713,1281.731713,1281.731713,1281.731713,1281.731713,1281.731713,1281.731713,1281.731713,1281.731713,1281.731713,
   **   ~~~   ** Supply-to-demand interface deck 1 energy check value iteration history trace: 2214.101898,2214.101898,2214.101898,2214.101898,2214.101898,2214.101898,2214.101898,2214.101898,2214.101898,2214.101898,
   ** Warning ** SimHVAC: Maximum iterations (20) exceeded for all HVAC loops, at ANNUAL, 02/09 19:30 - 19:45
   **   ~~~   ** The solution for one or more of the Air Loop HVAC systems did not appear to converge
   **   ~~~   ** Air System Named = CENTRAL SYSTEM did not converge for mass flow rate
   **   ~~~   ** Check values should be zero. Most Recent values listed first.
   **   ~~~   ** Demand-to-Supply interface mass flow rate check value iteration history trace: 7.108678E-002,7.108678E-002,7.108678E-002,7.108678E-002,7.108678E-002,7.108678E-002,7.108678E-002,7.108678E-002,7.108678E-002,7.108678E-002,
   **   ~~~   ** Supply-to-demand interface deck 1 mass flow rate check value iteration history trace: 7.108678E-002,7.108678E-002,7.108678E-002,7.108678E-002,7.108678E-002,7.108678E-002,7.108678E-002,7.108678E-002,7.108678E-002,7.108678E-002,
   **   ~~~   ** Air System Named = CENTRAL SYSTEM did not converge for energy
   **   ~~~   ** Check values should be zero. Most Recent values listed first.
   **   ~~~   ** Demand-to-Supply interface energy check value iteration history trace: 1381.761409,1381.761409,1381.761409,1381.761409,1381.761409,1381.761409,1381.761409,1381.761409,1381.761409,1381.761409,
   **   ~~~   ** Supply-to-demand interface deck 1 energy check value iteration history trace: 2346.858213,2346.858213,2346.858213,2346.858213,2346.858213,2346.858213,2346.858213,2346.858212,2346.858212,2346.858212,
   ** Warning ** SimHVAC: Maximum iterations (20) exceeded for all HVAC loops, at ANNUAL, 02/13 10:02 - 10:05
   **   ~~~   ** The solution for one or more of the Air Loop HVAC systems did not appear to converge
   **   ~~~   ** Air System Named = CENTRAL SYSTEM did not converge for mass flow rate
   **   ~~~   ** Check values should be zero. Most Recent values listed first.
   **   ~~~   ** Demand-to-Supply interface mass flow rate check value iteration history trace: 7.414405E-002,7.414405E-002,7.414405E-002,7.414405E-002,7.414405E-002,7.414405E-002,7.414405E-002,7.414405E-002,7.414405E-002,7.414405E-002,
   **   ~~~   ** Supply-to-demand interface deck 1 mass flow rate check value iteration history trace: 7.414405E-002,7.414405E-002,7.414405E-002,7.414405E-002,7.414405E-002,7.414405E-002,7.414405E-002,7.414405E-002,7.414405E-002,7.414405E-002,
   **   ~~~   ** Air System Named = CENTRAL SYSTEM did not converge for energy
   **   ~~~   ** Check values should be zero. Most Recent values listed first.
   **   ~~~   ** Demand-to-Supply interface energy check value iteration history trace: 1469.398737,1469.398737,1469.398737,1469.398737,1469.398737,1469.398737,1469.398737,1469.398737,1469.398737,1469.398736,
   **   ~~~   ** Supply-to-demand interface deck 1 energy check value iteration history trace: 2297.696598,2297.696598,2297.696598,2297.696598,2297.696598,2297.696598,2297.696598,2297.696598,2297.696597,2297.696597,
   ** Warning ** SimHVAC: Maximum iterations (20) exceeded for all HVAC loops, at ANNUAL, 02/19 13:20 - 13:25
   **   ~~~   ** The solution for one or more of the Air Loop HVAC systems did not appear to converge
   **   ~~~   ** Air System Named = CENTRAL SYSTEM did not converge for mass flow rate
   **   ~~~   ** Check values should be zero. Most Recent values listed first.
   **   ~~~   ** Demand-to-Supply interface mass flow rate check value iteration history trace: 8.434055E-002,8.434055E-002,8.434055E-002,8.434055E-002,8.434055E-002,8.434055E-002,8.434055E-002,8.434055E-002,8.434055E-002,8.434055E-002,
   **   ~~~   ** Supply-to-demand interface deck 1 mass flow rate check value iteration history trace: 8.434055E-002,8.434055E-002,8.434055E-002,8.434055E-002,8.434055E-002,8.434055E-002,8.434055E-002,8.434055E-002,8.434055E-002,8.434055E-002,
   **   ~~~   ** Air System Named = CENTRAL SYSTEM did not converge for energy
   **   ~~~   ** Check values should be zero. Most Recent values listed first.
   **   ~~~   ** Demand-to-Supply interface energy check value iteration history trace: 1671.327046,1671.327046,1671.327046,1671.327046,1671.327046,1671.327046,1671.327046,1671.327046,1671.327046,1671.327045,
   **   ~~~   ** Supply-to-demand interface deck 1 energy check value iteration history trace: 2539.607909,2539.607908,2539.607908,2539.607908,2539.607908,2539.607908,2539.607908,2539.607907,2539.607907,2539.607907,
   ** Warning ** SimHVAC: Maximum iterations (20) exceeded for all HVAC loops, at ANNUAL, 03/03 13:35 - 13:40
   **   ~~~   ** The solution for one or more of the Air Loop HVAC systems did not appear to converge
   **   ~~~   ** Air System Named = CENTRAL SYSTEM did not converge for mass flow rate
   **   ~~~   ** Check values should be zero. Most Recent values listed first.
   **   ~~~   ** Demand-to-Supply interface mass flow rate check value iteration history trace: 6.989152E-002,6.989152E-002,6.989152E-002,6.989152E-002,6.989152E-002,6.989152E-002,6.989152E-002,6.989152E-002,6.989152E-002,6.989152E-002,
   **   ~~~   ** Supply-to-demand interface deck 1 mass flow rate check value iteration history trace: 6.989152E-002,6.989152E-002,6.989152E-002,6.989152E-002,6.989152E-002,6.989152E-002,6.989152E-002,6.989152E-002,6.989152E-002,6.989152E-002,
   **   ~~~   ** Air System Named = CENTRAL SYSTEM did not converge for energy
   **   ~~~   ** Check values should be zero. Most Recent values listed first.
   **   ~~~   ** Demand-to-Supply interface energy check value iteration history trace: 1385.574684,1385.574684,1385.574684,1385.574684,1385.574684,1385.574684,1385.574684,1385.574684,1385.574684,1385.574683,
   **   ~~~   ** Supply-to-demand interface deck 1 energy check value iteration history trace: 2196.646419,2196.646419,2196.646419,2196.646418,2196.646418,2196.646418,2196.646418,2196.646418,2196.646418,2196.646418,
   ** Warning ** SimHVAC: Maximum iterations (20) exceeded for all HVAC loops, at ANNUAL, 03/05 07:45 - 07:52
   **   ~~~   ** The solution for one or more of the Air Loop HVAC systems did not appear to converge
   **   ~~~   ** Air System Named = CENTRAL SYSTEM did not converge for mass flow rate
   **   ~~~   ** Check values should be zero. Most Recent values listed first.
   **   ~~~   ** Demand-to-Supply interface mass flow rate check value iteration history trace: 2.729840E-002,2.729840E-002,2.729840E-002,2.729840E-002,2.729840E-002,2.729840E-002,2.729840E-002,2.729840E-002,2.729840E-002,2.729840E-002,
   **   ~~~   ** Supply-to-demand interface deck 1 mass flow rate check value iteration history trace: 2.729840E-002,2.729840E-002,2.729840E-002,2.729840E-002,2.729840E-002,2.729840E-002,2.729840E-002,2.729840E-002,2.729840E-002,2.729840E-002,
   **   ~~~   ** Air System Named = CENTRAL SYSTEM did not converge for energy
   **   ~~~   ** Check values should be zero. Most Recent values listed first.
   **   ~~~   ** Demand-to-Supply interface energy check value iteration history trace: 533.604589,533.604589,533.604589,533.604589,533.604588,533.604588,533.604588,533.604588,533.604588,533.604588,
   **   ~~~   ** Supply-to-demand interface deck 1 energy check value iteration history trace: 1007.813802,1007.813802,1007.813802,1007.813802,1007.813802,1007.813802,1007.813802,1007.813802,1007.813802,1007.813802,
   ** Warning ** SimHVAC: Maximum iterations (20) exceeded for all HVAC loops, at ANNUAL, 03/14 10:41 - 10:43
   **   ~~~   ** The solution for one or more of the Air Loop HVAC systems did not appear to converge
   **   ~~~   ** Air System Named = CENTRAL SYSTEM did not converge for mass flow rate
   **   ~~~   ** Check values should be zero. Most Recent values listed first.
   **   ~~~   ** Demand-to-Supply interface mass flow rate check value iteration history trace: 6.618683E-002,6.618683E-002,6.618683E-002,6.618683E-002,6.618683E-002,6.618683E-002,6.618683E-002,6.618683E-002,6.618683E-002,6.618683E-002,
   **   ~~~   ** Supply-to-demand interface deck 1 mass flow rate check value iteration history trace: 6.618683E-002,6.618683E-002,6.618683E-002,6.618683E-002,6.618683E-002,6.618683E-002,6.618683E-002,6.618683E-002,6.618683E-002,6.618683E-002,
   **   ~~~   ** Air System Named = CENTRAL SYSTEM did not converge for energy
   **   ~~~   ** Check values should be zero. Most Recent values listed first.
   **   ~~~   ** Demand-to-Supply interface energy check value iteration history trace: 1306.517281,1306.517281,1306.517280,1306.517280,1306.517280,1306.517280,1306.517280,1306.517280,1306.517280,1306.517280,
   **   ~~~   ** Supply-to-demand interface deck 1 energy check value iteration history trace: 2299.970024,2299.970024,2299.970024,2299.970024,2299.970024,2299.970024,2299.970024,2299.970023,2299.970023,2299.970023,
   ** Warning ** SimHVAC: Maximum iterations (20) exceeded for all HVAC loops, at ANNUAL, 03/22 08:41 - 08:45
   **   ~~~   ** The solution for one or more of the Air Loop HVAC systems did not appear to converge
   **   ~~~   ** Air System Named = CENTRAL SYSTEM did not converge for mass flow rate
   **   ~~~   ** Check values should be zero. Most Recent values listed first.
   **   ~~~   ** Demand-to-Supply interface mass flow rate check value iteration history trace: 6.027193E-002,6.027193E-002,6.027193E-002,6.027193E-002,6.027193E-002,6.027193E-002,6.027193E-002,6.027193E-002,6.027193E-002,6.027193E-002,
   **   ~~~   ** Supply-to-demand interface deck 1 mass flow rate check value iteration history trace: 6.027193E-002,6.027193E-002,6.027193E-002,6.027193E-002,6.027193E-002,6.027193E-002,6.027193E-002,6.027193E-002,6.027193E-002,6.027193E-002,
   **   ~~~   ** Air System Named = CENTRAL SYSTEM did not converge for energy
   **   ~~~   ** Check values should be zero. Most Recent values listed first.
   **   ~~~   ** Demand-to-Supply interface energy check value iteration history trace: 1185.521387,1185.521387,1185.521387,1185.521387,1185.521387,1185.521387,1185.521387,1185.521387,1185.521387,1185.521387,
   **   ~~~   ** Supply-to-demand interface deck 1 energy check value iteration history trace: 2179.010266,2179.010266,2179.010266,2179.010266,2179.010266,2179.010266,2179.010266,2179.010266,2179.010265,2179.010265,
   ** Warning ** SimHVAC: Maximum iterations (20) exceeded for all HVAC loops, at ANNUAL, 03/30 03:15 - 03:22
   **   ~~~   ** The solution for one or more of the Air Loop HVAC systems did not appear to converge
   **   ~~~   ** Air System Named = CENTRAL SYSTEM did not converge for mass flow rate
   **   ~~~   ** Check values should be zero. Most Recent values listed first.
   **   ~~~   ** Demand-to-Supply interface mass flow rate check value iteration history trace: 4.773366E-002,4.773366E-002,4.773366E-002,4.773366E-002,4.773366E-002,4.773366E-002,4.773366E-002,4.773366E-002,4.773366E-002,4.773366E-002,
   **   ~~~   ** Supply-to-demand interface deck 1 mass flow rate check value iteration history trace: 4.773366E-002,4.773366E-002,4.773366E-002,4.773366E-002,4.773366E-002,4.773366E-002,4.773366E-002,4.773366E-002,4.773366E-002,4.773366E-002,
   **   ~~~   ** Air System Named = CENTRAL SYSTEM did not converge for energy
   **   ~~~   ** Check values should be zero. Most Recent values listed first.
   **   ~~~   ** Demand-to-Supply interface energy check value iteration history trace: 887.711159,887.711159,887.711159,887.711159,887.711159,887.711159,887.711159,887.711159,887.711159,887.711159,
   **   ~~~   ** Supply-to-demand interface deck 1 energy check value iteration history trace: 1559.356335,1559.356335,1559.356335,1559.356335,1559.356335,1559.356334,1559.356334,1559.356334,1559.356334,1559.356334,
   ** Warning ** SimHVAC: Maximum iterations (20) exceeded for all HVAC loops, at ANNUAL, 04/26 09:45 - 10:00
   **   ~~~   ** The solution for one or more of the Air Loop HVAC systems did not appear to converge
   **   ~~~   ** Air System Named = CENTRAL SYSTEM did not converge for mass flow rate
   **   ~~~   ** Check values should be zero. Most Recent values listed first.
   **   ~~~   ** Demand-to-Supply interface mass flow rate check value iteration history trace: 5.703985E-002,5.703985E-002,5.703985E-002,5.703985E-002,5.703985E-002,5.703985E-002,5.703985E-002,5.703985E-002,5.703985E-002,5.703985E-002,
   **   ~~~   ** Supply-to-demand interface deck 1 mass flow rate check value iteration history trace: 5.703985E-002,5.703985E-002,5.703985E-002,5.703985E-002,5.703985E-002,5.703985E-002,5.703985E-002,5.703985E-002,5.703985E-002,5.703985E-002,
   **   ~~~   ** Air System Named = CENTRAL SYSTEM did not converge for energy
   **   ~~~   ** Check values should be zero. Most Recent values listed first.
   **   ~~~   ** Demand-to-Supply interface energy check value iteration history trace: 1130.403428,1130.403428,1130.403428,1130.403428,1130.403428,1130.403428,1130.403428,1130.403428,1130.403428,1130.403428,
   **   ~~~   ** Supply-to-demand interface deck 1 energy check value iteration history trace: 1992.939382,1992.939382,1992.939382,1992.939382,1992.939382,1992.939381,1992.939381,1992.939381,1992.939381,1992.939381,
   ** Warning ** SimHVAC: Maximum iterations (20) exceeded for all HVAC loops, at ANNUAL, 04/29 06:00 - 06:08
   **   ~~~   ** The solution for one or more of the Air Loop HVAC systems did not appear to converge
   **   ~~~   ** Air System Named = CENTRAL SYSTEM did not converge for mass flow rate
   **   ~~~   ** Check values should be zero. Most Recent values listed first.
   **   ~~~   ** Demand-to-Supply interface mass flow rate check value iteration history trace: 5.592677E-002,5.592677E-002,5.592677E-002,5.592677E-002,5.592677E-002,5.592677E-002,5.592677E-002,5.592677E-002,5.592677E-002,5.592677E-002,
   **   ~~~   ** Supply-to-demand interface deck 1 mass flow rate check value iteration history trace: 5.592677E-002,5.592677E-002,5.592677E-002,5.592677E-002,5.592677E-002,5.592677E-002,5.592677E-002,5.592677E-002,5.592677E-002,5.592677E-002,
   **   ~~~   ** Air System Named = CENTRAL SYSTEM did not converge for energy
   **   ~~~   ** Check values should be zero. Most Recent values listed first.
   **   ~~~   ** Demand-to-Supply interface energy check value iteration history trace: 1118.762925,1118.762925,1118.762925,1118.762925,1118.762925,1118.762925,1118.762925,1118.762925,1118.762925,1118.762925,
   **   ~~~   ** Supply-to-demand interface deck 1 energy check value iteration history trace: 1930.223782,1930.223782,1930.223782,1930.223782,1930.223782,1930.223782,1930.223782,1930.223782,1930.223782,1930.223782,
   ** Warning ** SimHVAC: Maximum iterations (20) exceeded for all HVAC loops, at ANNUAL, 10/21 09:59 - 10:00
   **   ~~~   ** The solution for one or more of the Air Loop HVAC systems did not appear to converge
   **   ~~~   ** Air System Named = CENTRAL SYSTEM did not converge for mass flow rate
   **   ~~~   ** Check values should be zero. Most Recent values listed first.
   **   ~~~   ** Demand-to-Supply interface mass flow rate check value iteration history trace: 0.299831,0.299831,0.299831,0.299831,0.299831,0.299831,0.299831,0.299831,0.299831,0.299831,
   **   ~~~   ** Supply-to-demand interface deck 1 mass flow rate check value iteration history trace: 0.299831,0.299831,0.299831,0.299831,0.299831,0.299831,0.299831,0.299831,0.299831,0.299831,
   **   ~~~   ** Air System Named = CENTRAL SYSTEM did not converge for energy
   **   ~~~   ** Check values should be zero. Most Recent values listed first.
   **   ~~~   ** Demand-to-Supply interface energy check value iteration history trace: 7106.467629,7106.467631,7106.467632,7106.467634,7106.467635,7106.467637,7106.467638,7106.467640,7106.467641,7106.467643,
   **   ~~~   ** Supply-to-demand interface deck 1 energy check value iteration history trace: 3547.502110,3547.502110,3547.502111,3547.502112,3547.502113,3547.502113,3547.502114,3547.502115,3547.502116,3547.502116,
   ** Warning ** SimHVAC: Maximum iterations (20) exceeded for all HVAC loops, at ANNUAL, 10/26 02:35 - 02:40
   **   ~~~   ** The solution for one or more of the Air Loop HVAC systems did not appear to converge
   **   ~~~   ** Air System Named = CENTRAL SYSTEM did not converge for mass flow rate
   **   ~~~   ** Check values should be zero. Most Recent values listed first.
   **   ~~~   ** Demand-to-Supply interface mass flow rate check value iteration history trace: 6.100326E-002,6.100326E-002,6.100326E-002,6.100326E-002,6.100326E-002,6.100326E-002,6.100326E-002,6.100326E-002,6.100326E-002,6.100326E-002,
   **   ~~~   ** Supply-to-demand interface deck 1 mass flow rate check value iteration history trace: 6.100326E-002,6.100326E-002,6.100326E-002,6.100326E-002,6.100326E-002,6.100326E-002,6.100326E-002,6.100326E-002,6.100326E-002,6.100326E-002,
   **   ~~~   ** Air System Named = CENTRAL SYSTEM did not converge for energy
   **   ~~~   ** Check values should be zero. Most Recent values listed first.
   **   ~~~   ** Demand-to-Supply interface energy check value iteration history trace: 1151.069506,1151.069506,1151.069506,1151.069506,1151.069506,1151.069506,1151.069506,1151.069506,1151.069506,1151.069506,
   **   ~~~   ** Supply-to-demand interface deck 1 energy check value iteration history trace: 1975.898303,1975.898303,1975.898303,1975.898303,1975.898303,1975.898303,1975.898303,1975.898303,1975.898303,1975.898302,
   ** Warning ** SimHVAC: Maximum iterations (20) exceeded for all HVAC loops, at ANNUAL, 11/04 02:00 - 02:15
   **   ~~~   ** The solution for one or more of the Air Loop HVAC systems did not appear to converge
   **   ~~~   ** Air System Named = CENTRAL SYSTEM did not converge for mass flow rate
   **   ~~~   ** Check values should be zero. Most Recent values listed first.
   **   ~~~   ** Demand-to-Supply interface mass flow rate check value iteration history trace: 5.999346E-002,5.999346E-002,5.999346E-002,5.999346E-002,5.999346E-002,5.999346E-002,5.999346E-002,5.999346E-002,5.999346E-002,5.999346E-002,
   **   ~~~   ** Supply-to-demand interface deck 1 mass flow rate check value iteration history trace: 5.999346E-002,5.999346E-002,5.999346E-002,5.999346E-002,5.999346E-002,5.999346E-002,5.999346E-002,5.999346E-002,5.999346E-002,5.999346E-002,
   **   ~~~   ** Air System Named = CENTRAL SYSTEM did not converge for energy
   **   ~~~   ** Check values should be zero. Most Recent values listed first.
   **   ~~~   ** Demand-to-Supply interface energy check value iteration history trace: 1120.483542,1120.483542,1120.483542,1120.483542,1120.483542,1120.483542,1120.483542,1120.483542,1120.483542,1120.483541,
   **   ~~~   ** Supply-to-demand interface deck 1 energy check value iteration history trace: 1725.774209,1725.774209,1725.774209,1725.774209,1725.774208,1725.774208,1725.774208,1725.774208,1725.774208,1725.774208,
   ************* Simulation Error Summary *************
   ** Warning ** The following Report Variables were requested but not generated -- check.rdd file
   **   ~~~   ** Either the IDF did not contain these elements, the variable name is misspelled,
   **   ~~~   ** or the requested variable is an advanced output which requires Output : Diagnostics, DisplayAdvancedReportVariables;
   ************* Key=*, VarName=BASEBOARD TOTAL HEATING ENERGY, Frequency=
   ************* Key=*, VarName=WATER HEATER NATURALGAS ENERGY, Frequency=
   ************* Key=*, VarName=COOLING COIL TOTAL HEATING ENERGY, Frequency=
   ************* There are 34 unused schedules in input.
   ************* There are 388 unused week schedules in input.
   ************* There are 397 unused day schedules in input.
   ************* Use Output:Diagnostics,DisplayUnusedSchedules; to see them.
   *************
   ************* ===== Recurring Error Summary =====
   ************* The following recurring error messages occurred.
   *************
   *************  ** Warning ** "TOTAL HOT WATER LOAD" - Target water temperature should be less than or equal to the hot water temperature error continues...
   *************  **   ~~~   **   This error occurred 101713 total times;
   *************  **   ~~~   **   during Warmup 0 times;
   *************  **   ~~~   **   during Sizing 0 times.
   *************  **   ~~~   **   Max=9.569154  Min=6.172733E-003
   *************
   *************  ** Warning ** SimHVAC: Exceeding Maximum iterations for all HVAC loops, during ANNUAL continues
   *************  **   ~~~   **   This error occurred 2 total times;
   *************  **   ~~~   **   during Warmup 0 times;
   *************  **   ~~~   **   during Sizing 0 times.
   *************
   *************
   ************* ===== Final Error Summary =====
   ************* The following error categories occurred.  Consider correcting or noting.
   ************* Nominally Unused Constructions
   ************* ..The nominally unused constructions warning is provided to alert you to potential conditions that can cause
   ************* ..extra time during simulation. Each construction is calculated by the algorithm indicated in the HeatBalanceAlgorithm
   ************* ..object. You may remove the constructions indicated (when you use the DisplayExtraWarnings option).
   *************
   ************* EnergyPlus Warmup Error Summary. During Warmup: 1 Warning; 0 Severe Errors.
   ************* EnergyPlus Sizing Error Summary. During Sizing: 4 Warning; 0 Severe Errors.
   ************* EnergyPlus Completed Successfully-- 101747 Warning; 0 Severe Errors; Elapsed Time=00hr 01min 34.50sec
