Program Version,EnergyPlus, Version 22.2.0-c249759bad, YMD=2023.08.31 13:04,
   ************* Beginning Zone Sizing Calculations
   ** Warning ** ProcessScheduleInput: Schedule:Constant="ALWAYS ON DISCRETE", Schedule Type Limits Name="ONOFF" not found -- will not be validated
   ** Warning ** Foundation:Kiva="KIVA FOUNDATION", no Interior Horizontal Insulation Material Name defined
   **   ~~~   ** Interior Horizontal Insulation Depth will not be used.
   ** Warning ** CheckUsedConstructions: There are 15 nominally unused constructions in input.
   **   ~~~   ** Each Unused construction is shown.
   ************* Construction=INTERIOR FLOOR
   ************* Construction=INTERIOR WINDOW
   ************* Construction=EXTERIOR DOOR
   ************* Construction=INTERIOR DOOR
   ************* Construction=GABLE CONSTRUCTION
   ************* Construction=CRAWL_FLOOR
   ************* Construction=INSULATED PIPE
   ************* Construction=PLAIN PIPE
   ************* Construction=TDD PIPE
   ************* Construction=TDD DOME
   ************* Construction=TDD DIFFUSER
   ************* Construction=CRAWL WALL
   ************* Construction=CEILING-FLOOR-LAYER
   ************* Construction=SLAB CONSTRUCTION W FULL R10 INSULATION
   ************* Construction=SLAB CONSTRUCTION W FULL R5 INSULATION
   ** Warning ** GetDXCoils: Coil:Heating:DX:SingleSpeed="DX_HEATING_COIL" curve values
   **   ~~~   ** ... Defrost Energy Input Ratio Function of Temperature Curve Name = DEFROSTEIR output is not equal to 1.0 (+ or - 10%) at rated conditions.
   **   ~~~   ** ... Curve output at rated conditions = 0.152
   ************* Beginning System Sizing Calculations
   ************* Beginning Plant Sizing Calculations
   ** Warning ** Coil:WaterHeating:AirToWaterHeatPump:Wrapped "HEAT PUMP WATER HEATER EVAPORATOR": Rated air volume flow rate per watt of rated total water heating capacity is out of range
   **   ~~~   ** Min Rated Vol Flow Per Watt=[4.027E-005], Rated Vol Flow Per Watt=[1.386E-004], Max Rated Vol Flow Per Watt=[8.056E-005]. See Input-Output Reference Manual for valid range.
   ** Warning ** Water heater = WATER HEATER TANK:  Recovery Efficiency and Energy Factor could not be calculated during the test for standard ratings
   **   ~~~   ** Setpoint was never recovered and/or heater never turned on
   ** Warning ** Check input. Pump nominal power or motor efficiency is set to 0, for pump=MAINS PRESSURE
   ** Warning ** AirflowNetwork::Solver::validate_distribution: Heat pump water heater is simulated along with an AirflowNetwork but is not included in the AirflowNetwork.
   ** Warning ** Output:Meter: invalid Key Name="ELECTRIC_RANGE:INTERIOREQUIPMENT:ELECTRICITY" - not found.
   ** Warning ** Output:Meter: invalid Key Name="ELECTRIC_DRYER:INTERIOREQUIPMENT:ELECTRICITY" - not found.
   ** Warning ** Output:Meter: invalid Key Name="HEATRECOVERY:ELECTRICITY" - not found.
   ** Warning ** Output:Meter: invalid Key Name="HEATING:NATURALGAS" - not found.
   ** Warning ** Output:Meter: invalid Key Name="WATERSYSTEMS:NATURALGAS" - not found.
   ** Warning ** Output:Meter: invalid Key Name="PROPANE:FACILITY" - not found.
   ** Warning ** Output:Meter: invalid Key Name="HEATING:PROPANE" - not found.
   ************* Testing Individual Branch Integrity
   ************* All Branches passed integrity testing
   ************* Testing Individual Supply Air Path Integrity
   ************* All Supply Air Paths passed integrity testing
   ************* Testing Individual Return Air Path Integrity
   ************* All Return Air Paths passed integrity testing
   ************* No node connection errors were found.
   ************* Beginning Simulation
   ** Warning ** CalcEquipmentFlowRates: "TOTAL HOT WATER LOAD" - Target water temperature is greater than the hot water temperature by (1.65 C)
   **   ~~~   **  Environment=EXTREME_WINTER, at Simulation time=01/20 06:00 - 06:15
   **   ~~~   ** ...target water temperature     = 53.33 C
   **   ~~~   ** ...hot water temperature        = 51.69 C
   **   ~~~   ** ...Target water temperature should be less than or equal to the hot water temperature. Verify temperature setpoints and schedules.
   ** Warning ** SimHVAC: Maximum iterations (20) exceeded for all HVAC loops, at ANNUAL, 03/05 11:00 - 11:05
   **   ~~~   ** The solution for one or more of the Air Loop HVAC systems did not appear to converge
   **   ~~~   ** Air System Named = CENTRAL SYSTEM did not converge for mass flow rate
   **   ~~~   ** Check values should be zero. Most Recent values listed first.
   **   ~~~   ** Demand-to-Supply interface mass flow rate check value iteration history trace: 6.659814E-002,6.659814E-002,6.659814E-002,6.659814E-002,6.659814E-002,6.659814E-002,6.659814E-002,6.659814E-002,6.659814E-002,6.659814E-002,
   **   ~~~   ** Supply-to-demand interface deck 1 mass flow rate check value iteration history trace: 6.659814E-002,6.659814E-002,6.659814E-002,6.659814E-002,6.659814E-002,6.659814E-002,6.659814E-002,6.659814E-002,6.659814E-002,6.659814E-002,
   **   ~~~   ** Air System Named = CENTRAL SYSTEM did not converge for energy
   **   ~~~   ** Check values should be zero. Most Recent values listed first.
   **   ~~~   ** Demand-to-Supply interface energy check value iteration history trace: 1319.751529,1319.751527,1319.751525,1319.751523,1319.751521,1319.751519,1319.751517,1319.751515,1319.751513,1319.751511,
   **   ~~~   ** Supply-to-demand interface deck 1 energy check value iteration history trace: 2513.125997,2513.125993,2513.125989,2513.125986,2513.125982,2513.125978,2513.125974,2513.125971,2513.125967,2513.125963,
   **   ~~~   ** Node named ZONE INLET NODE shows oscillating temperatures across iterations with a repeated value of 37.553774
   **   ~~~   ** Node named ZONE INLET NODE temperature [C] iteration history trace (most recent first): 37.553774,37.553774,37.553773,37.553773,37.553773,37.553773,37.553772,37.553772,37.553772,37.553771,
   ** Warning ** SimHVAC: Maximum iterations (20) exceeded for all HVAC loops, at ANNUAL, 03/18 10:38 - 10:45
   **   ~~~   ** The solution for one or more of the Air Loop HVAC systems did not appear to converge
   **   ~~~   ** Air System Named = CENTRAL SYSTEM did not converge for mass flow rate
   **   ~~~   ** Check values should be zero. Most Recent values listed first.
   **   ~~~   ** Demand-to-Supply interface mass flow rate check value iteration history trace: 6.354031E-002,6.354031E-002,6.354031E-002,6.354031E-002,6.354031E-002,6.354031E-002,6.354031E-002,6.354031E-002,6.354031E-002,6.354031E-002,
   **   ~~~   ** Supply-to-demand interface deck 1 mass flow rate check value iteration history trace: 6.354031E-002,6.354031E-002,6.354031E-002,6.354031E-002,6.354031E-002,6.354031E-002,6.354031E-002,6.354031E-002,6.354031E-002,6.354031E-002,
   **   ~~~   ** Air System Named = CENTRAL SYSTEM did not converge for energy
   **   ~~~   ** Check values should be zero. Most Recent values listed first.
   **   ~~~   ** Demand-to-Supply interface energy check value iteration history trace: 1251.218314,1251.218312,1251.218311,1251.218310,1251.218308,1251.218307,1251.218306,1251.218304,1251.218303,1251.218302,
   **   ~~~   ** Supply-to-demand interface deck 1 energy check value iteration history trace: 2371.298361,2371.298358,2371.298355,2371.298353,2371.298350,2371.298348,2371.298345,2371.298343,2371.298340,2371.298338,
   ** Warning ** SimHVAC: Maximum iterations (20) exceeded for all HVAC loops, at ANNUAL, 03/21 09:00 - 09:15
   **   ~~~   ** The solution for one or more of the Air Loop HVAC systems did not appear to converge
   **   ~~~   ** Air System Named = CENTRAL SYSTEM did not converge for mass flow rate
   **   ~~~   ** Check values should be zero. Most Recent values listed first.
   **   ~~~   ** Demand-to-Supply interface mass flow rate check value iteration history trace: 6.756051E-002,6.756051E-002,6.756051E-002,6.756050E-002,6.756050E-002,6.756050E-002,6.756050E-002,6.756050E-002,6.756050E-002,6.756050E-002,
   **   ~~~   ** Supply-to-demand interface deck 1 mass flow rate check value iteration history trace: 6.756051E-002,6.756051E-002,6.756051E-002,6.756050E-002,6.756050E-002,6.756050E-002,6.756050E-002,6.756050E-002,6.756050E-002,6.756050E-002,
   **   ~~~   ** Air System Named = CENTRAL SYSTEM did not converge for energy
   **   ~~~   ** Check values should be zero. Most Recent values listed first.
   **   ~~~   ** Demand-to-Supply interface energy check value iteration history trace: 1338.797591,1338.797589,1338.797588,1338.797587,1338.797586,1338.797585,1338.797583,1338.797582,1338.797581,1338.797580,
   **   ~~~   ** Supply-to-demand interface deck 1 energy check value iteration history trace: 2398.026716,2398.026714,2398.026712,2398.026709,2398.026707,2398.026705,2398.026703,2398.026701,2398.026698,2398.026696,
   ** Warning ** SimHVAC: Maximum iterations (20) exceeded for all HVAC loops, at ANNUAL, 03/27 13:30 - 13:45
   **   ~~~   ** The solution for one or more of the Air Loop HVAC systems did not appear to converge
   **   ~~~   ** Air System Named = CENTRAL SYSTEM did not converge for mass flow rate
   **   ~~~   ** Check values should be zero. Most Recent values listed first.
   **   ~~~   ** Demand-to-Supply interface mass flow rate check value iteration history trace: 7.618796E-002,7.618796E-002,7.618796E-002,7.618796E-002,7.618796E-002,7.618796E-002,7.618796E-002,7.618796E-002,7.618796E-002,7.618796E-002,
   **   ~~~   ** Supply-to-demand interface deck 1 mass flow rate check value iteration history trace: 7.618796E-002,7.618796E-002,7.618796E-002,7.618796E-002,7.618796E-002,7.618796E-002,7.618796E-002,7.618796E-002,7.618796E-002,7.618796E-002,
   **   ~~~   ** Air System Named = CENTRAL SYSTEM did not converge for energy
   **   ~~~   ** Check values should be zero. Most Recent values listed first.
   **   ~~~   ** Demand-to-Supply interface energy check value iteration history trace: 1509.820161,1509.820160,1509.820158,1509.820156,1509.820155,1509.820153,1509.820151,1509.820150,1509.820148,1509.820146,
   **   ~~~   ** Supply-to-demand interface deck 1 energy check value iteration history trace: 2651.782378,2651.782375,2651.782372,2651.782369,2651.782366,2651.782364,2651.782361,2651.782358,2651.782355,2651.782352,
   ** Warning ** SimHVAC: Maximum iterations (20) exceeded for all HVAC loops, at ANNUAL, 03/27 13:30 - 13:32
   **   ~~~   ** The solution for one or more of the Air Loop HVAC systems did not appear to converge
   **   ~~~   ** Air System Named = CENTRAL SYSTEM did not converge for mass flow rate
   **   ~~~   ** Check values should be zero. Most Recent values listed first.
   **   ~~~   ** Demand-to-Supply interface mass flow rate check value iteration history trace: 7.790014E-002,7.790014E-002,7.790014E-002,7.790014E-002,7.790014E-002,7.790014E-002,7.790014E-002,7.790014E-002,7.790014E-002,7.790014E-002,
   **   ~~~   ** Supply-to-demand interface deck 1 mass flow rate check value iteration history trace: 7.790014E-002,7.790014E-002,7.790014E-002,7.790014E-002,7.790014E-002,7.790014E-002,7.790014E-002,7.790014E-002,7.790014E-002,7.790014E-002,
   **   ~~~   ** Air System Named = CENTRAL SYSTEM did not converge for energy
   **   ~~~   ** Check values should be zero. Most Recent values listed first.
   **   ~~~   ** Demand-to-Supply interface energy check value iteration history trace: 1543.804769,1543.804767,1543.804765,1543.804764,1543.804762,1543.804760,1543.804759,1543.804757,1543.804755,1543.804754,
   **   ~~~   ** Supply-to-demand interface deck 1 energy check value iteration history trace: 2711.398204,2711.398201,2711.398198,2711.398195,2711.398192,2711.398189,2711.398186,2711.398183,2711.398180,2711.398177,
   ** Warning ** SimHVAC: Maximum iterations (20) exceeded for all HVAC loops, at ANNUAL, 04/11 06:45 - 07:00
   **   ~~~   ** The solution for one or more of the Air Loop HVAC systems did not appear to converge
   **   ~~~   ** Air System Named = CENTRAL SYSTEM did not converge for mass flow rate
   **   ~~~   ** Check values should be zero. Most Recent values listed first.
   **   ~~~   ** Demand-to-Supply interface mass flow rate check value iteration history trace: 7.225714E-002,7.225714E-002,7.225714E-002,7.225714E-002,7.225714E-002,7.225714E-002,7.225714E-002,7.225714E-002,7.225714E-002,7.225714E-002,
   **   ~~~   ** Supply-to-demand interface deck 1 mass flow rate check value iteration history trace: 7.225714E-002,7.225714E-002,7.225714E-002,7.225714E-002,7.225714E-002,7.225714E-002,7.225714E-002,7.225714E-002,7.225714E-002,7.225714E-002,
   **   ~~~   ** Air System Named = CENTRAL SYSTEM did not converge for energy
   **   ~~~   ** Check values should be zero. Most Recent values listed first.
   **   ~~~   ** Demand-to-Supply interface energy check value iteration history trace: 1432.115774,1432.115773,1432.115772,1432.115771,1432.115770,1432.115769,1432.115769,1432.115768,1432.115767,1432.115766,
   **   ~~~   ** Supply-to-demand interface deck 1 energy check value iteration history trace: 2622.310891,2622.310889,2622.310888,2622.310886,2622.310885,2622.310883,2622.310882,2622.310880,2622.310878,2622.310877,
   ** Warning ** SimHVAC: Maximum iterations (20) exceeded for all HVAC loops, at ANNUAL, 04/15 18:30 - 18:45
   **   ~~~   ** The solution for one or more of the Air Loop HVAC systems did not appear to converge
   **   ~~~   ** Air System Named = CENTRAL SYSTEM did not converge for mass flow rate
   **   ~~~   ** Check values should be zero. Most Recent values listed first.
   **   ~~~   ** Demand-to-Supply interface mass flow rate check value iteration history trace: 8.414098E-002,8.414098E-002,8.414098E-002,8.414098E-002,8.414098E-002,8.414098E-002,8.414098E-002,8.414098E-002,8.414098E-002,8.414098E-002,
   **   ~~~   ** Supply-to-demand interface deck 1 mass flow rate check value iteration history trace: 8.414098E-002,8.414098E-002,8.414098E-002,8.414098E-002,8.414098E-002,8.414098E-002,8.414098E-002,8.414098E-002,8.414098E-002,8.414098E-002,
   **   ~~~   ** Air System Named = CENTRAL SYSTEM did not converge for energy
   **   ~~~   ** Check values should be zero. Most Recent values listed first.
   **   ~~~   ** Demand-to-Supply interface energy check value iteration history trace: 1658.538102,1658.538100,1658.538098,1658.538095,1658.538093,1658.538091,1658.538089,1658.538087,1658.538084,1658.538082,
   **   ~~~   ** Supply-to-demand interface deck 1 energy check value iteration history trace: 2678.167737,2678.167734,2678.167730,2678.167727,2678.167723,2678.167720,2678.167716,2678.167713,2678.167709,2678.167705,
   ** Warning ** SimHVAC: Maximum iterations (20) exceeded for all HVAC loops, at ANNUAL, 05/17 07:30 - 07:45
   **   ~~~   ** The solution for one or more of the Air Loop HVAC systems did not appear to converge
   **   ~~~   ** Air System Named = CENTRAL SYSTEM did not converge for mass flow rate
   **   ~~~   ** Check values should be zero. Most Recent values listed first.
   **   ~~~   ** Demand-to-Supply interface mass flow rate check value iteration history trace: 5.714943E-002,5.714943E-002,5.714943E-002,5.714943E-002,5.714943E-002,5.714943E-002,5.714943E-002,5.714943E-002,5.714943E-002,5.714943E-002,
   **   ~~~   ** Supply-to-demand interface deck 1 mass flow rate check value iteration history trace: 5.714943E-002,5.714943E-002,5.714943E-002,5.714943E-002,5.714943E-002,5.714943E-002,5.714943E-002,5.714943E-002,5.714943E-002,5.714943E-002,
   **   ~~~   ** Air System Named = CENTRAL SYSTEM did not converge for energy
   **   ~~~   ** Check values should be zero. Most Recent values listed first.
   **   ~~~   ** Demand-to-Supply interface energy check value iteration history trace: 1114.125165,1114.125164,1114.125164,1114.125163,1114.125162,1114.125162,1114.125161,1114.125160,1114.125160,1114.125159,
   **   ~~~   ** Supply-to-demand interface deck 1 energy check value iteration history trace: 2140.599469,2140.599468,2140.599467,2140.599465,2140.599464,2140.599463,2140.599462,2140.599460,2140.599459,2140.599458,
   ** Warning ** SimHVAC: Maximum iterations (20) exceeded for all HVAC loops, at ANNUAL, 10/16 06:30 - 06:45
   **   ~~~   ** The solution for one or more of the Air Loop HVAC systems did not appear to converge
   **   ~~~   ** Air System Named = CENTRAL SYSTEM did not converge for mass flow rate
   **   ~~~   ** Check values should be zero. Most Recent values listed first.
   **   ~~~   ** Demand-to-Supply interface mass flow rate check value iteration history trace: 5.256608E-002,5.256608E-002,5.256608E-002,5.256608E-002,5.256608E-002,5.256608E-002,5.256608E-002,5.256608E-002,5.256608E-002,5.256608E-002,
   **   ~~~   ** Supply-to-demand interface deck 1 mass flow rate check value iteration history trace: 5.256608E-002,5.256608E-002,5.256608E-002,5.256608E-002,5.256608E-002,5.256608E-002,5.256608E-002,5.256608E-002,5.256608E-002,5.256608E-002,
   **   ~~~   ** Air System Named = CENTRAL SYSTEM did not converge for energy
   **   ~~~   ** Check values should be zero. Most Recent values listed first.
   **   ~~~   ** Demand-to-Supply interface energy check value iteration history trace: 1041.751085,1041.751085,1041.751084,1041.751083,1041.751083,1041.751082,1041.751081,1041.751081,1041.751080,1041.751079,
   **   ~~~   ** Supply-to-demand interface deck 1 energy check value iteration history trace: 1949.468680,1949.468678,1949.468677,1949.468676,1949.468675,1949.468673,1949.468672,1949.468671,1949.468670,1949.468668,
   ** Warning ** SimHVAC: Maximum iterations (20) exceeded for all HVAC loops, at ANNUAL, 10/16 06:30 - 06:38
   **   ~~~   ** The solution for one or more of the Air Loop HVAC systems did not appear to converge
   **   ~~~   ** Air System Named = CENTRAL SYSTEM did not converge for mass flow rate
   **   ~~~   ** Check values should be zero. Most Recent values listed first.
   **   ~~~   ** Demand-to-Supply interface mass flow rate check value iteration history trace: 5.127855E-002,5.127855E-002,5.127855E-002,5.127855E-002,5.127855E-002,5.127855E-002,5.127855E-002,5.127855E-002,5.127855E-002,5.127855E-002,
   **   ~~~   ** Supply-to-demand interface deck 1 mass flow rate check value iteration history trace: 5.127855E-002,5.127855E-002,5.127855E-002,5.127855E-002,5.127855E-002,5.127855E-002,5.127855E-002,5.127855E-002,5.127855E-002,5.127855E-002,
   **   ~~~   ** Air System Named = CENTRAL SYSTEM did not converge for energy
   **   ~~~   ** Check values should be zero. Most Recent values listed first.
   **   ~~~   ** Demand-to-Supply interface energy check value iteration history trace: 1016.234679,1016.234678,1016.234677,1016.234677,1016.234676,1016.234676,1016.234675,1016.234674,1016.234674,1016.234673,
   **   ~~~   ** Supply-to-demand interface deck 1 energy check value iteration history trace: 1901.723899,1901.723898,1901.723897,1901.723896,1901.723895,1901.723893,1901.723892,1901.723891,1901.723890,1901.723888,
   ** Warning ** SimHVAC: Maximum iterations (20) exceeded for all HVAC loops, at ANNUAL, 10/29 20:15 - 20:20
   **   ~~~   ** The solution for one or more of the Air Loop HVAC systems did not appear to converge
   **   ~~~   ** Air System Named = CENTRAL SYSTEM did not converge for mass flow rate
   **   ~~~   ** Check values should be zero. Most Recent values listed first.
   **   ~~~   ** Demand-to-Supply interface mass flow rate check value iteration history trace: 7.439359E-002,7.439359E-002,7.439359E-002,7.439359E-002,7.439359E-002,7.439359E-002,7.439359E-002,7.439359E-002,7.439359E-002,7.439359E-002,
   **   ~~~   ** Supply-to-demand interface deck 1 mass flow rate check value iteration history trace: 7.439359E-002,7.439359E-002,7.439359E-002,7.439359E-002,7.439359E-002,7.439359E-002,7.439359E-002,7.439359E-002,7.439359E-002,7.439359E-002,
   **   ~~~   ** Air System Named = CENTRAL SYSTEM did not converge for energy
   **   ~~~   ** Check values should be zero. Most Recent values listed first.
   **   ~~~   ** Demand-to-Supply interface energy check value iteration history trace: 1472.761306,1472.761305,1472.761304,1472.761303,1472.761302,1472.761301,1472.761300,1472.761299,1472.761298,1472.761297,
   **   ~~~   ** Supply-to-demand interface deck 1 energy check value iteration history trace: 2659.601990,2659.601988,2659.601986,2659.601984,2659.601983,2659.601981,2659.601979,2659.601977,2659.601975,2659.601973,
   ** Warning ** SimHVAC: Maximum iterations (20) exceeded for all HVAC loops, at ANNUAL, 11/09 07:15 - 07:20
   **   ~~~   ** The solution for one or more of the Air Loop HVAC systems did not appear to converge
   **   ~~~   ** Air System Named = CENTRAL SYSTEM did not converge for mass flow rate
   **   ~~~   ** Check values should be zero. Most Recent values listed first.
   **   ~~~   ** Demand-to-Supply interface mass flow rate check value iteration history trace: 7.718209E-002,7.718209E-002,7.718209E-002,7.718209E-002,7.718209E-002,7.718209E-002,7.718209E-002,7.718209E-002,7.718209E-002,7.718209E-002,
   **   ~~~   ** Supply-to-demand interface deck 1 mass flow rate check value iteration history trace: 7.718209E-002,7.718209E-002,7.718209E-002,7.718209E-002,7.718209E-002,7.718209E-002,7.718209E-002,7.718209E-002,7.718209E-002,7.718209E-002,
   **   ~~~   ** Air System Named = CENTRAL SYSTEM did not converge for energy
   **   ~~~   ** Check values should be zero. Most Recent values listed first.
   **   ~~~   ** Demand-to-Supply interface energy check value iteration history trace: 1529.378754,1529.378753,1529.378752,1529.378751,1529.378750,1529.378749,1529.378748,1529.378747,1529.378746,1529.378745,
   **   ~~~   ** Supply-to-demand interface deck 1 energy check value iteration history trace: 2769.332090,2769.332088,2769.332086,2769.332084,2769.332082,2769.332080,2769.332079,2769.332077,2769.332075,2769.332073,
   ************* Simulation Error Summary *************
   ** Warning ** The following Report Variables were requested but not generated -- check.rdd file
   **   ~~~   ** Either the IDF did not contain these elements, the variable name is misspelled,
   **   ~~~   ** or the requested variable is an advanced output which requires Output : Diagnostics, DisplayAdvancedReportVariables;
   ************* Key=*, VarName=BASEBOARD TOTAL HEATING ENERGY, Frequency=
   ************* Key=*, VarName=WATER HEATER NATURALGAS ENERGY, Frequency=
   ************* Key=*, VarName=COOLING COIL TOTAL HEATING ENERGY, Frequency=
   ************* There are 34 unused schedules in input.
   ************* There are 388 unused week schedules in input.
   ************* There are 396 unused day schedules in input.
   ************* Use Output:Diagnostics,DisplayUnusedSchedules; to see them.
   *************
   ************* ===== Recurring Error Summary =====
   ************* The following recurring error messages occurred.
   *************
   *************  ** Warning ** "TOTAL HOT WATER LOAD" - Target water temperature should be less than or equal to the hot water temperature error continues...
   *************  **   ~~~   **   This error occurred 85339 total times;
   *************  **   ~~~   **   during Warmup 0 times;
   *************  **   ~~~   **   during Sizing 0 times.
   *************  **   ~~~   **   Max=10.74538  Min=3.727155E-004
   *************
   *************
   ************* ===== Final Error Summary =====
   ************* The following error categories occurred.  Consider correcting or noting.
   ************* Nominally Unused Constructions
   ************* ..The nominally unused constructions warning is provided to alert you to potential conditions that can cause
   ************* ..extra time during simulation. Each construction is calculated by the algorithm indicated in the HeatBalanceAlgorithm
   ************* ..object. You may remove the constructions indicated (when you use the DisplayExtraWarnings option).
   *************
   ************* EnergyPlus Warmup Error Summary. During Warmup: 0 Warning; 0 Severe Errors.
   ************* EnergyPlus Sizing Error Summary. During Sizing: 4 Warning; 0 Severe Errors.
   ************* EnergyPlus Completed Successfully-- 85368 Warning; 0 Severe Errors; Elapsed Time=00hr 05min 12.87sec
