Program Version,EnergyPlus, Version 22.2.0-c249759bad, YMD=2023.09.01 20:03,
   ************* Beginning Zone Sizing Calculations
   ** Warning ** ProcessScheduleInput: Schedule:Constant="ALWAYS ON DISCRETE", Schedule Type Limits Name="ONOFF" not found -- will not be validated
   ** Warning ** Foundation:Kiva="KIVA FOUNDATION", no Interior Horizontal Insulation Material Name defined
   **   ~~~   ** Interior Horizontal Insulation Depth will not be used.
   ** Warning ** CheckUsedConstructions: There are 15 nominally unused constructions in input.
   **   ~~~   ** Each Unused construction is shown.
   ************* Construction=INTERIOR FLOOR
   ************* Construction=INTERIOR WINDOW
   ************* Construction=EXTERIOR DOOR
   ************* Construction=INTERIOR DOOR
   ************* Construction=GABLE CONSTRUCTION
   ************* Construction=CRAWL_FLOOR
   ************* Construction=INSULATED PIPE
   ************* Construction=PLAIN PIPE
   ************* Construction=TDD PIPE
   ************* Construction=TDD DOME
   ************* Construction=TDD DIFFUSER
   ************* Construction=CRAWL WALL
   ************* Construction=CEILING-FLOOR-LAYER
   ************* Construction=SLAB CONSTRUCTION W FULL R10 INSULATION
   ************* Construction=SLAB CONSTRUCTION W FULL R5 INSULATION
   ** Warning ** GetDXCoils: Coil:Heating:DX:SingleSpeed="DX_HEATING_COIL" curve values
   **   ~~~   ** ... Defrost Energy Input Ratio Function of Temperature Curve Name = DEFROSTEIR output is not equal to 1.0 (+ or - 10%) at rated conditions.
   **   ~~~   ** ... Curve output at rated conditions = 0.152
   ************* Beginning System Sizing Calculations
   ************* Beginning Plant Sizing Calculations
   ** Warning ** SizeDXCoil Coil:Cooling:DX:SingleSpeed DX_COOLING_COIL
   **   ~~~   ** ...Gross Rated Total Cooling Capacity [W] will be limited by the maximum rated volume flow per rated total capacity ratio.
   **   ~~~   ** ...DX coil volume flow rate ( m3/s ) = 0.430042
   **   ~~~   ** ...Requested capacity ( W ) = 7092.579
   **   ~~~   ** ...Requested flow/capacity ratio ( m3/s/W ) = 6.063E-005
   **   ~~~   ** ...Maximum flow/capacity ratio ( m3/s/W ) = 6.041E-005
   **   ~~~   ** ...Adjusted capacity ( W ) = 7118.736
   ** Warning ** Coil:WaterHeating:AirToWaterHeatPump:Wrapped "HEAT PUMP WATER HEATER EVAPORATOR": Rated air volume flow rate per watt of rated total water heating capacity is out of range
   **   ~~~   ** Min Rated Vol Flow Per Watt=[4.027E-005], Rated Vol Flow Per Watt=[1.510E-004], Max Rated Vol Flow Per Watt=[8.056E-005]. See Input-Output Reference Manual for valid range.
   ************* SizeFan: : Potential issue with equipment sizing for Fan:OnOff HEAT PUMP WATER HEATER FAN
   **   ~~~   ** User-Specified Maximum Flow Rate [m3/s] = 0.22653
   **   ~~~   ** differs from Design Size Maximum Flow Rate [m3/s] = 7.55250E-002
   **   ~~~   ** This may, or may not, indicate mismatched component sizes.
   **   ~~~   ** Verify that the value entered is intended and is consistent with other components.
   ** Warning ** Water heater = WATER HEATER TANK:  Recovery Efficiency and Energy Factor could not be calculated during the test for standard ratings
   **   ~~~   ** Setpoint was never recovered and/or heater never turned on
   ** Warning ** Check input. Pump nominal power or motor efficiency is set to 0, for pump=MAINS PRESSURE
   ** Warning ** Output:Meter: invalid Key Name="ELECTRIC_RANGE:INTERIOREQUIPMENT:ELECTRICITY" - not found.
   ** Warning ** Output:Meter: invalid Key Name="ELECTRIC_DRYER:INTERIOREQUIPMENT:ELECTRICITY" - not found.
   ** Warning ** Output:Meter: invalid Key Name="HEATRECOVERY:ELECTRICITY" - not found.
   ** Warning ** Output:Meter: invalid Key Name="HEATING:NATURALGAS" - not found.
   ** Warning ** Output:Meter: invalid Key Name="WATERSYSTEMS:NATURALGAS" - not found.
   ** Warning ** Output:Meter: invalid Key Name="PROPANE:FACILITY" - not found.
   ** Warning ** Output:Meter: invalid Key Name="HEATING:PROPANE" - not found.
   ************* Testing Individual Branch Integrity
   ************* All Branches passed integrity testing
   ************* Testing Individual Supply Air Path Integrity
   ************* All Supply Air Paths passed integrity testing
   ************* Testing Individual Return Air Path Integrity
   ************* All Return Air Paths passed integrity testing
   ************* No node connection errors were found.
   ************* Beginning Simulation
   ** Warning ** AirflowNetwork::Solver::validate_distribution: Heat pump water heater is simulated along with an AirflowNetwork but is not included in the AirflowNetwork.
   ** Warning ** CalcEquipmentFlowRates: "TOTAL HOT WATER LOAD" - Target water temperature is greater than the hot water temperature by (3.58 C)
   **   ~~~   **  Environment=EXTREME_WINTER, at Simulation time=01/08 07:00 - 07:15
   **   ~~~   ** ...target water temperature     = 53.33 C
   **   ~~~   ** ...hot water temperature        = 49.75 C
   **   ~~~   ** ...Target water temperature should be less than or equal to the hot water temperature. Verify temperature setpoints and schedules.
   ** Severe  ** CheckWarmupConvergence: Loads Initialization, Zone="LIVING" did not converge after 25 warmup days.
   **   ~~~   ** See Warmup Convergence Information in .eio file for details.
   **   ~~~   ** ...Environment(RunPeriod)="ANNUAL"
   **   ~~~   ** ..Max Temp Comparison = 2.05E-002 vs Temperature Convergence Tolerance=5.00E-002 - Pass Convergence
   **   ~~~   ** ..Min Temp Comparison = 3.43E-002 vs Temperature Convergence Tolerance=5.00E-002 - Pass Convergence
   **   ~~~   ** ..Max Heat Load Comparison = 5.0061E-002 vs Loads Convergence Tolerance=5.00E-002 - Fail Convergence
   **   ~~~   ** ..Max Cool Load Comparison = 7.9482E-004 vs Loads Convergence Tolerance=5.00E-002 - Pass Convergence
   ** Warning ** SimHVAC: Maximum iterations (20) exceeded for all HVAC loops, at ANNUAL, 02/24 12:35 - 12:40
   **   ~~~   ** The solution for one or more of the Air Loop HVAC systems did not appear to converge
   **   ~~~   ** Air System Named = CENTRAL SYSTEM did not converge for mass flow rate
   **   ~~~   ** Check values should be zero. Most Recent values listed first.
   **   ~~~   ** Demand-to-Supply interface mass flow rate check value iteration history trace: 7.811356E-002,7.811356E-002,7.811356E-002,7.811356E-002,7.811356E-002,7.811356E-002,7.811356E-002,7.811356E-002,7.811356E-002,7.811356E-002,
   **   ~~~   ** Supply-to-demand interface deck 1 mass flow rate check value iteration history trace: 7.811356E-002,7.811356E-002,7.811356E-002,7.811356E-002,7.811356E-002,7.811356E-002,7.811356E-002,7.811356E-002,7.811356E-002,7.811356E-002,
   **   ~~~   ** Air System Named = CENTRAL SYSTEM did not converge for energy
   **   ~~~   ** Check values should be zero. Most Recent values listed first.
   **   ~~~   ** Demand-to-Supply interface energy check value iteration history trace: 1539.350317,1539.350316,1539.350316,1539.350316,1539.350316,1539.350316,1539.350316,1539.350316,1539.350316,1539.350316,
   **   ~~~   ** Supply-to-demand interface deck 1 energy check value iteration history trace: 2425.749613,2425.749613,2425.749613,2425.749612,2425.749612,2425.749612,2425.749612,2425.749612,2425.749612,2425.749611,
   ** Warning ** SimHVAC: Maximum iterations (20) exceeded for all HVAC loops, at ANNUAL, 03/06 10:45 - 10:52
   **   ~~~   ** The solution for one or more of the Air Loop HVAC systems did not appear to converge
   **   ~~~   ** Air System Named = CENTRAL SYSTEM did not converge for mass flow rate
   **   ~~~   ** Check values should be zero. Most Recent values listed first.
   **   ~~~   ** Demand-to-Supply interface mass flow rate check value iteration history trace: 5.484700E-002,5.484700E-002,5.484700E-002,5.484700E-002,5.484700E-002,5.484700E-002,5.484700E-002,5.484700E-002,5.484700E-002,5.484700E-002,
   **   ~~~   ** Supply-to-demand interface deck 1 mass flow rate check value iteration history trace: 5.484700E-002,5.484700E-002,5.484700E-002,5.484700E-002,5.484700E-002,5.484700E-002,5.484700E-002,5.484700E-002,5.484700E-002,5.484700E-002,
   **   ~~~   ** Air System Named = CENTRAL SYSTEM did not converge for energy
   **   ~~~   ** Check values should be zero. Most Recent values listed first.
   **   ~~~   ** Demand-to-Supply interface energy check value iteration history trace: 1086.862581,1086.862581,1086.862581,1086.862581,1086.862581,1086.862580,1086.862580,1086.862580,1086.862580,1086.862580,
   **   ~~~   ** Supply-to-demand interface deck 1 energy check value iteration history trace: 1957.945616,1957.945616,1957.945616,1957.945616,1957.945616,1957.945616,1957.945616,1957.945616,1957.945616,1957.945615,
   ** Warning ** SimHVAC: Maximum iterations (20) exceeded for all HVAC loops, at ANNUAL, 03/11 12:30 - 12:38
   **   ~~~   ** The solution for one or more of the Air Loop HVAC systems did not appear to converge
   **   ~~~   ** Air System Named = CENTRAL SYSTEM did not converge for mass flow rate
   **   ~~~   ** Check values should be zero. Most Recent values listed first.
   **   ~~~   ** Demand-to-Supply interface mass flow rate check value iteration history trace: 6.634163E-002,6.634163E-002,6.634163E-002,6.634163E-002,6.634163E-002,6.634163E-002,6.634163E-002,6.634163E-002,6.634163E-002,6.634163E-002,
   **   ~~~   ** Supply-to-demand interface deck 1 mass flow rate check value iteration history trace: 6.634163E-002,6.634163E-002,6.634163E-002,6.634163E-002,6.634163E-002,6.634163E-002,6.634163E-002,6.634163E-002,6.634163E-002,6.634163E-002,
   **   ~~~   ** Air System Named = CENTRAL SYSTEM did not converge for energy
   **   ~~~   ** Check values should be zero. Most Recent values listed first.
   **   ~~~   ** Demand-to-Supply interface energy check value iteration history trace: 1314.672524,1314.672524,1314.672524,1314.672524,1314.672524,1314.672523,1314.672523,1314.672523,1314.672523,1314.672523,
   **   ~~~   ** Supply-to-demand interface deck 1 energy check value iteration history trace: 2047.478287,2047.478286,2047.478286,2047.478286,2047.478286,2047.478286,2047.478286,2047.478286,2047.478285,2047.478285,
   ** Warning ** SimHVAC: Maximum iterations (20) exceeded for all HVAC loops, at ANNUAL, 05/06 23:45 - 24:00
   **   ~~~   ** The solution for one or more of the Air Loop HVAC systems did not appear to converge
   **   ~~~   ** Air System Named = CENTRAL SYSTEM did not converge for mass flow rate
   **   ~~~   ** Check values should be zero. Most Recent values listed first.
   **   ~~~   ** Demand-to-Supply interface mass flow rate check value iteration history trace: 0.109089,0.109089,0.109089,0.109089,0.109089,0.109089,0.109089,0.109089,0.109089,0.109089,
   **   ~~~   ** Supply-to-demand interface deck 1 mass flow rate check value iteration history trace: 0.109089,0.109089,0.109089,0.109089,0.109089,0.109089,0.109089,0.109089,0.109089,0.109089,
   **   ~~~   ** Air System Named = CENTRAL SYSTEM did not converge for energy
   **   ~~~   ** Check values should be zero. Most Recent values listed first.
   **   ~~~   ** Demand-to-Supply interface energy check value iteration history trace: 2733.536668,2733.536668,2733.536669,2733.536670,2733.536671,2733.536672,2733.536672,2733.536673,2733.536674,2733.536675,
   **   ~~~   ** Supply-to-demand interface deck 1 energy check value iteration history trace: 1359.999750,1359.999750,1359.999751,1359.999751,1359.999751,1359.999752,1359.999752,1359.999753,1359.999753,1359.999753,
   ** Warning ** SimHVAC: Maximum iterations (20) exceeded for all HVAC loops, at ANNUAL, 05/10 02:15 - 02:30
   **   ~~~   ** The solution for one or more of the Air Loop HVAC systems did not appear to converge
   **   ~~~   ** Air System Named = CENTRAL SYSTEM did not converge for mass flow rate
   **   ~~~   ** Check values should be zero. Most Recent values listed first.
   **   ~~~   ** Demand-to-Supply interface mass flow rate check value iteration history trace: 2.916487E-002,2.916487E-002,2.916487E-002,2.916487E-002,2.916487E-002,2.916487E-002,2.916487E-002,2.916487E-002,2.916487E-002,2.916487E-002,
   **   ~~~   ** Supply-to-demand interface deck 1 mass flow rate check value iteration history trace: 2.916487E-002,2.916487E-002,2.916487E-002,2.916487E-002,2.916487E-002,2.916487E-002,2.916487E-002,2.916487E-002,2.916487E-002,2.916487E-002,
   **   ~~~   ** Air System Named = CENTRAL SYSTEM did not converge for energy
   **   ~~~   ** Check values should be zero. Most Recent values listed first.
   **   ~~~   ** Demand-to-Supply interface energy check value iteration history trace: 712.649113,712.649114,712.649114,712.649114,712.649114,712.649115,712.649115,712.649115,712.649115,712.649116,
   **   ~~~   ** Supply-to-demand interface deck 1 energy check value iteration history trace: 389.408172,389.408172,389.408173,389.408173,389.408173,389.408173,389.408173,389.408173,389.408173,389.408174,
   ** Warning ** SimHVAC: Maximum iterations (20) exceeded for all HVAC loops, at ANNUAL, 10/30 10:15 - 10:20
   **   ~~~   ** The solution for one or more of the Air Loop HVAC systems did not appear to converge
   **   ~~~   ** Air System Named = CENTRAL SYSTEM did not converge for mass flow rate
   **   ~~~   ** Check values should be zero. Most Recent values listed first.
   **   ~~~   ** Demand-to-Supply interface mass flow rate check value iteration history trace: 5.997806E-002,5.997806E-002,5.997806E-002,5.997806E-002,5.997806E-002,5.997806E-002,5.997806E-002,5.997806E-002,5.997806E-002,5.997806E-002,
   **   ~~~   ** Supply-to-demand interface deck 1 mass flow rate check value iteration history trace: 5.997806E-002,5.997806E-002,5.997806E-002,5.997806E-002,5.997806E-002,5.997806E-002,5.997806E-002,5.997806E-002,5.997806E-002,5.997806E-002,
   **   ~~~   ** Air System Named = CENTRAL SYSTEM did not converge for energy
   **   ~~~   ** Check values should be zero. Most Recent values listed first.
   **   ~~~   ** Demand-to-Supply interface energy check value iteration history trace: 1179.563117,1179.563117,1179.563117,1179.563117,1179.563117,1179.563117,1179.563117,1179.563117,1179.563117,1179.563117,
   **   ~~~   ** Supply-to-demand interface deck 1 energy check value iteration history trace: 2093.308513,2093.308513,2093.308513,2093.308512,2093.308512,2093.308512,2093.308512,2093.308512,2093.308512,2093.308512,
   ** Warning ** SimHVAC: Maximum iterations (20) exceeded for all HVAC loops, at ANNUAL, 11/15 11:00 - 11:03
   **   ~~~   ** The solution for one or more of the Air Loop HVAC systems did not appear to converge
   **   ~~~   ** Air System Named = CENTRAL SYSTEM did not converge for mass flow rate
   **   ~~~   ** Check values should be zero. Most Recent values listed first.
   **   ~~~   ** Demand-to-Supply interface mass flow rate check value iteration history trace: 6.786213E-002,6.786213E-002,6.786213E-002,6.786213E-002,6.786213E-002,6.786213E-002,6.786213E-002,6.786213E-002,6.786213E-002,6.786213E-002,
   **   ~~~   ** Supply-to-demand interface deck 1 mass flow rate check value iteration history trace: 6.786213E-002,6.786213E-002,6.786213E-002,6.786213E-002,6.786213E-002,6.786213E-002,6.786213E-002,6.786213E-002,6.786213E-002,6.786213E-002,
   **   ~~~   ** Air System Named = CENTRAL SYSTEM did not converge for energy
   **   ~~~   ** Check values should be zero. Most Recent values listed first.
   **   ~~~   ** Demand-to-Supply interface energy check value iteration history trace: 1344.834209,1344.834209,1344.834209,1344.834209,1344.834209,1344.834209,1344.834209,1344.834209,1344.834209,1344.834209,
   **   ~~~   ** Supply-to-demand interface deck 1 energy check value iteration history trace: 2313.571561,2313.571561,2313.571561,2313.571561,2313.571561,2313.571560,2313.571560,2313.571560,2313.571560,2313.571560,
   ** Warning ** SimHVAC: Maximum iterations (20) exceeded for all HVAC loops, at ANNUAL, 11/18 23:45 - 24:00
   **   ~~~   ** The solution for one or more of the Air Loop HVAC systems did not appear to converge
   **   ~~~   ** Air System Named = CENTRAL SYSTEM did not converge for mass flow rate
   **   ~~~   ** Check values should be zero. Most Recent values listed first.
   **   ~~~   ** Demand-to-Supply interface mass flow rate check value iteration history trace: 7.456503E-002,7.456503E-002,7.456503E-002,7.456503E-002,7.456503E-002,7.456503E-002,7.456503E-002,7.456503E-002,7.456503E-002,7.456503E-002,
   **   ~~~   ** Supply-to-demand interface deck 1 mass flow rate check value iteration history trace: 7.456503E-002,7.456503E-002,7.456503E-002,7.456503E-002,7.456503E-002,7.456503E-002,7.456503E-002,7.456503E-002,7.456503E-002,7.456503E-002,
   **   ~~~   ** Air System Named = CENTRAL SYSTEM did not converge for energy
   **   ~~~   ** Check values should be zero. Most Recent values listed first.
   **   ~~~   ** Demand-to-Supply interface energy check value iteration history trace: 1391.936197,1391.936196,1391.936196,1391.936196,1391.936196,1391.936196,1391.936196,1391.936196,1391.936196,1391.936196,
   **   ~~~   ** Supply-to-demand interface deck 1 energy check value iteration history trace: 2180.121854,2180.121854,2180.121853,2180.121853,2180.121853,2180.121853,2180.121853,2180.121853,2180.121853,2180.121853,
   ** Warning ** SimHVAC: Maximum iterations (20) exceeded for all HVAC loops, at ANNUAL, 12/04 10:15 - 10:30
   **   ~~~   ** The solution for one or more of the Air Loop HVAC systems did not appear to converge
   **   ~~~   ** Air System Named = CENTRAL SYSTEM did not converge for mass flow rate
   **   ~~~   ** Check values should be zero. Most Recent values listed first.
   **   ~~~   ** Demand-to-Supply interface mass flow rate check value iteration history trace: 9.809062E-002,9.809062E-002,9.809062E-002,9.809062E-002,9.809062E-002,9.809062E-002,9.809062E-002,9.809062E-002,9.809062E-002,9.809062E-002,
   **   ~~~   ** Supply-to-demand interface deck 1 mass flow rate check value iteration history trace: 9.809062E-002,9.809062E-002,9.809062E-002,9.809062E-002,9.809062E-002,9.809062E-002,9.809062E-002,9.809062E-002,9.809062E-002,9.809062E-002,
   **   ~~~   ** Air System Named = CENTRAL SYSTEM did not converge for energy
   **   ~~~   ** Check values should be zero. Most Recent values listed first.
   **   ~~~   ** Demand-to-Supply interface energy check value iteration history trace: 1943.800580,1943.800580,1943.800580,1943.800580,1943.800579,1943.800579,1943.800579,1943.800579,1943.800579,1943.800579,
   **   ~~~   ** Supply-to-demand interface deck 1 energy check value iteration history trace: 2995.685248,2995.685248,2995.685248,2995.685248,2995.685248,2995.685247,2995.685247,2995.685247,2995.685247,2995.685247,
   ** Warning ** SimHVAC: Maximum iterations (20) exceeded for all HVAC loops, at ANNUAL, 12/04 10:15 - 10:20
   **   ~~~   ** The solution for one or more of the Air Loop HVAC systems did not appear to converge
   **   ~~~   ** Air System Named = CENTRAL SYSTEM did not converge for mass flow rate
   **   ~~~   ** Check values should be zero. Most Recent values listed first.
   **   ~~~   ** Demand-to-Supply interface mass flow rate check value iteration history trace: 9.926777E-002,9.926777E-002,9.926777E-002,9.926777E-002,9.926777E-002,9.926777E-002,9.926777E-002,9.926777E-002,9.926777E-002,9.926777E-002,
   **   ~~~   ** Supply-to-demand interface deck 1 mass flow rate check value iteration history trace: 9.926777E-002,9.926777E-002,9.926777E-002,9.926777E-002,9.926777E-002,9.926777E-002,9.926777E-002,9.926777E-002,9.926777E-002,9.926777E-002,
   **   ~~~   ** Air System Named = CENTRAL SYSTEM did not converge for energy
   **   ~~~   ** Check values should be zero. Most Recent values listed first.
   **   ~~~   ** Demand-to-Supply interface energy check value iteration history trace: 1967.108342,1967.108342,1967.108342,1967.108342,1967.108342,1967.108341,1967.108341,1967.108341,1967.108341,1967.108341,
   **   ~~~   ** Supply-to-demand interface deck 1 energy check value iteration history trace: 3031.644936,3031.644936,3031.644936,3031.644936,3031.644935,3031.644935,3031.644935,3031.644935,3031.644935,3031.644934,
   ** Warning ** SimHVAC: Maximum iterations (20) exceeded for all HVAC loops, at ANNUAL, 12/18 16:35 - 16:40
   **   ~~~   ** The solution for one or more of the Air Loop HVAC systems did not appear to converge
   **   ~~~   ** Air System Named = CENTRAL SYSTEM did not converge for mass flow rate
   **   ~~~   ** Check values should be zero. Most Recent values listed first.
   **   ~~~   ** Demand-to-Supply interface mass flow rate check value iteration history trace: 7.518603E-002,7.518603E-002,7.518603E-002,7.518603E-002,7.518603E-002,7.518603E-002,7.518603E-002,7.518603E-002,7.518603E-002,7.518603E-002,
   **   ~~~   ** Supply-to-demand interface deck 1 mass flow rate check value iteration history trace: 7.518603E-002,7.518603E-002,7.518603E-002,7.518603E-002,7.518603E-002,7.518603E-002,7.518603E-002,7.518603E-002,7.518603E-002,7.518603E-002,
   **   ~~~   ** Air System Named = CENTRAL SYSTEM did not converge for energy
   **   ~~~   ** Check values should be zero. Most Recent values listed first.
   **   ~~~   ** Demand-to-Supply interface energy check value iteration history trace: 1489.304142,1489.304142,1489.304142,1489.304142,1489.304142,1489.304141,1489.304141,1489.304141,1489.304141,1489.304141,
   **   ~~~   ** Supply-to-demand interface deck 1 energy check value iteration history trace: 2544.075025,2544.075024,2544.075024,2544.075024,2544.075024,2544.075024,2544.075024,2544.075024,2544.075024,2544.075023,
   ** Warning ** SimHVAC: Maximum iterations (20) exceeded for all HVAC loops, at ANNUAL, 12/25 10:17 - 10:19
   **   ~~~   ** The solution for one or more of the Air Loop HVAC systems did not appear to converge
   **   ~~~   ** Air System Named = CENTRAL SYSTEM did not converge for mass flow rate
   **   ~~~   ** Check values should be zero. Most Recent values listed first.
   **   ~~~   ** Demand-to-Supply interface mass flow rate check value iteration history trace: 8.067459E-002,8.067459E-002,8.067459E-002,8.067459E-002,8.067459E-002,8.067459E-002,8.067459E-002,8.067459E-002,8.067459E-002,8.067459E-002,
   **   ~~~   ** Supply-to-demand interface deck 1 mass flow rate check value iteration history trace: 8.067459E-002,8.067459E-002,8.067459E-002,8.067459E-002,8.067459E-002,8.067459E-002,8.067459E-002,8.067459E-002,8.067459E-002,8.067459E-002,
   **   ~~~   ** Air System Named = CENTRAL SYSTEM did not converge for energy
   **   ~~~   ** Check values should be zero. Most Recent values listed first.
   **   ~~~   ** Demand-to-Supply interface energy check value iteration history trace: 1595.784077,1595.784077,1595.784077,1595.784077,1595.784077,1595.784076,1595.784076,1595.784076,1595.784076,1595.784076,
   **   ~~~   ** Supply-to-demand interface deck 1 energy check value iteration history trace: 2666.813094,2666.813094,2666.813093,2666.813093,2666.813093,2666.813093,2666.813093,2666.813093,2666.813093,2666.813093,
   ** Warning ** SimHVAC: Maximum iterations (20) exceeded for all HVAC loops, at ANNUAL, 12/27 09:38 - 09:45
   **   ~~~   ** The solution for one or more of the Air Loop HVAC systems did not appear to converge
   **   ~~~   ** Air System Named = CENTRAL SYSTEM did not converge for mass flow rate
   **   ~~~   ** Check values should be zero. Most Recent values listed first.
   **   ~~~   ** Demand-to-Supply interface mass flow rate check value iteration history trace: 0.110382,0.110382,0.110382,0.110382,0.110382,0.110382,0.110382,0.110382,0.110382,0.110382,
   **   ~~~   ** Supply-to-demand interface deck 1 mass flow rate check value iteration history trace: 0.110382,0.110382,0.110382,0.110382,0.110382,0.110382,0.110382,0.110382,0.110382,0.110382,
   **   ~~~   ** Air System Named = CENTRAL SYSTEM did not converge for energy
   **   ~~~   ** Check values should be zero. Most Recent values listed first.
   **   ~~~   ** Demand-to-Supply interface energy check value iteration history trace: 2187.722983,2187.722983,2187.722983,2187.722983,2187.722983,2187.722983,2187.722982,2187.722982,2187.722982,2187.722982,
   **   ~~~   ** Supply-to-demand interface deck 1 energy check value iteration history trace: 3269.603346,3269.603346,3269.603346,3269.603345,3269.603345,3269.603345,3269.603345,3269.603344,3269.603344,3269.603344,
   ** Warning ** SimHVAC: Maximum iterations (20) exceeded for all HVAC loops, at ANNUAL, 12/27 16:38 - 16:45
   **   ~~~   ** The solution for one or more of the Air Loop HVAC systems did not appear to converge
   **   ~~~   ** Air System Named = CENTRAL SYSTEM did not converge for mass flow rate
   **   ~~~   ** Check values should be zero. Most Recent values listed first.
   **   ~~~   ** Demand-to-Supply interface mass flow rate check value iteration history trace: 9.596583E-002,9.596583E-002,9.596583E-002,9.596583E-002,9.596583E-002,9.596583E-002,9.596583E-002,9.596583E-002,9.596583E-002,9.596583E-002,
   **   ~~~   ** Supply-to-demand interface deck 1 mass flow rate check value iteration history trace: 9.596583E-002,9.596583E-002,9.596583E-002,9.596583E-002,9.596583E-002,9.596583E-002,9.596583E-002,9.596583E-002,9.596583E-002,9.596583E-002,
   **   ~~~   ** Air System Named = CENTRAL SYSTEM did not converge for energy
   **   ~~~   ** Check values should be zero. Most Recent values listed first.
   **   ~~~   ** Demand-to-Supply interface energy check value iteration history trace: 1900.533840,1900.533840,1900.533840,1900.533840,1900.533840,1900.533839,1900.533839,1900.533839,1900.533839,1900.533839,
   **   ~~~   ** Supply-to-demand interface deck 1 energy check value iteration history trace: 2872.378084,2872.378084,2872.378083,2872.378083,2872.378083,2872.378083,2872.378083,2872.378082,2872.378082,2872.378082,
   ************* Simulation Error Summary *************
   ** Warning ** The following Report Variables were requested but not generated -- check.rdd file
   **   ~~~   ** Either the IDF did not contain these elements, the variable name is misspelled,
   **   ~~~   ** or the requested variable is an advanced output which requires Output : Diagnostics, DisplayAdvancedReportVariables;
   ************* Key=*, VarName=BASEBOARD TOTAL HEATING ENERGY, Frequency=
   ************* Key=*, VarName=WATER HEATER NATURALGAS ENERGY, Frequency=
   ************* Key=*, VarName=COOLING COIL TOTAL HEATING ENERGY, Frequency=
   ************* There are 34 unused schedules in input.
   ************* There are 388 unused week schedules in input.
   ************* There are 396 unused day schedules in input.
   ************* Use Output:Diagnostics,DisplayUnusedSchedules; to see them.
   *************
   ************* ===== Recurring Error Summary =====
   ************* The following recurring error messages occurred.
   *************
   *************  ** Warning ** "TOTAL HOT WATER LOAD" - Target water temperature should be less than or equal to the hot water temperature error continues...
   *************  **   ~~~   **   This error occurred 170867 total times;
   *************  **   ~~~   **   during Warmup 0 times;
   *************  **   ~~~   **   during Sizing 0 times.
   *************  **   ~~~   **   Max=11.813693  Min=7.827544E-004
   *************
   *************  ** Warning ** SimHVAC: Exceeding Maximum iterations for all HVAC loops, during ANNUAL continues
   *************  **   ~~~   **   This error occurred 2 total times;
   *************  **   ~~~   **   during Warmup 0 times;
   *************  **   ~~~   **   during Sizing 0 times.
   *************
   *************
   ************* ===== Final Error Summary =====
   ************* The following error categories occurred.  Consider correcting or noting.
   ************* Loads Initialization did not Converge
   ************* ..1) very high thermal mass such as very thick concrete (solution: increase max number of warmup
   ************* ..   days in the BUILDING object);
   ************* ..2) moderate mass and inadequate space conditioning such that the building keeps getting warmer
   ************* ..   and warmer on successive days (solution: add HVAC, check building thermal properties,
   ************* ..   check if infiltration is included, make sure HVAC properly controlled);
   ************* ..3) a soil layer modeled below the concrete slab - (solution remove this layer and read about
   ************* ..   ground temperatures in the Auxiliary Programs document).
   ************* ..4) unreasonable (too small) limits in the BUILDING object for temperature (.4 default) or
   ************* ..   loads tolerances (.04 default)
   ************* Nominally Unused Constructions
   ************* ..The nominally unused constructions warning is provided to alert you to potential conditions that can cause
   ************* ..extra time during simulation. Each construction is calculated by the algorithm indicated in the HeatBalanceAlgorithm
   ************* ..object. You may remove the constructions indicated (when you use the DisplayExtraWarnings option).
   *************
   ************* EnergyPlus Warmup Error Summary. During Warmup: 1 Warning; 1 Severe Errors.
   ************* EnergyPlus Sizing Error Summary. During Sizing: 4 Warning; 0 Severe Errors.
   ************* EnergyPlus Completed Successfully-- 170901 Warning; 1 Severe Errors; Elapsed Time=00hr 01min 43.48sec
