Program Version,EnergyPlus, Version 22.2.0-c249759bad, YMD=2023.09.01 20:08,
   ************* Beginning Zone Sizing Calculations
   ** Warning ** ProcessScheduleInput: Schedule:Constant="ALWAYS ON DISCRETE", Schedule Type Limits Name="ONOFF" not found -- will not be validated
   ** Warning ** Foundation:Kiva="KIVA FOUNDATION", no Interior Horizontal Insulation Material Name defined
   **   ~~~   ** Interior Horizontal Insulation Depth will not be used.
   ** Warning ** CheckUsedConstructions: There are 15 nominally unused constructions in input.
   **   ~~~   ** Each Unused construction is shown.
   ************* Construction=INTERIOR FLOOR
   ************* Construction=INTERIOR WINDOW
   ************* Construction=EXTERIOR DOOR
   ************* Construction=INTERIOR DOOR
   ************* Construction=GABLE CONSTRUCTION
   ************* Construction=CRAWL_FLOOR
   ************* Construction=INSULATED PIPE
   ************* Construction=PLAIN PIPE
   ************* Construction=TDD PIPE
   ************* Construction=TDD DOME
   ************* Construction=TDD DIFFUSER
   ************* Construction=CRAWL WALL
   ************* Construction=CEILING-FLOOR-LAYER
   ************* Construction=SLAB CONSTRUCTION W FULL R10 INSULATION
   ************* Construction=SLAB CONSTRUCTION W FULL R5 INSULATION
   ** Warning ** GetDXCoils: Coil:Heating:DX:SingleSpeed="DX_HEATING_COIL" curve values
   **   ~~~   ** ... Defrost Energy Input Ratio Function of Temperature Curve Name = DEFROSTEIR output is not equal to 1.0 (+ or - 10%) at rated conditions.
   **   ~~~   ** ... Curve output at rated conditions = 0.152
   ************* Beginning System Sizing Calculations
   ************* Beginning Plant Sizing Calculations
   ** Warning ** Coil:WaterHeating:AirToWaterHeatPump:Wrapped "HEAT PUMP WATER HEATER EVAPORATOR": Rated air volume flow rate per watt of rated total water heating capacity is out of range
   **   ~~~   ** Min Rated Vol Flow Per Watt=[4.027E-005], Rated Vol Flow Per Watt=[1.510E-004], Max Rated Vol Flow Per Watt=[8.056E-005]. See Input-Output Reference Manual for valid range.
   ************* SizeFan: : Potential issue with equipment sizing for Fan:OnOff HEAT PUMP WATER HEATER FAN
   **   ~~~   ** User-Specified Maximum Flow Rate [m3/s] = 0.22653
   **   ~~~   ** differs from Design Size Maximum Flow Rate [m3/s] = 7.55250E-002
   **   ~~~   ** This may, or may not, indicate mismatched component sizes.
   **   ~~~   ** Verify that the value entered is intended and is consistent with other components.
   ** Warning ** Water heater = WATER HEATER TANK:  Recovery Efficiency and Energy Factor could not be calculated during the test for standard ratings
   **   ~~~   ** Setpoint was never recovered and/or heater never turned on
   ** Warning ** Check input. Pump nominal power or motor efficiency is set to 0, for pump=MAINS PRESSURE
   ** Warning ** Output:Meter: invalid Key Name="ELECTRIC_RANGE:INTERIOREQUIPMENT:ELECTRICITY" - not found.
   ** Warning ** Output:Meter: invalid Key Name="ELECTRIC_DRYER:INTERIOREQUIPMENT:ELECTRICITY" - not found.
   ** Warning ** Output:Meter: invalid Key Name="HEATRECOVERY:ELECTRICITY" - not found.
   ** Warning ** Output:Meter: invalid Key Name="HEATING:NATURALGAS" - not found.
   ** Warning ** Output:Meter: invalid Key Name="WATERSYSTEMS:NATURALGAS" - not found.
   ** Warning ** Output:Meter: invalid Key Name="PROPANE:FACILITY" - not found.
   ** Warning ** Output:Meter: invalid Key Name="HEATING:PROPANE" - not found.
   ************* Testing Individual Branch Integrity
   ************* All Branches passed integrity testing
   ************* Testing Individual Supply Air Path Integrity
   ************* All Supply Air Paths passed integrity testing
   ************* Testing Individual Return Air Path Integrity
   ************* All Return Air Paths passed integrity testing
   ************* No node connection errors were found.
   ************* Beginning Simulation
   ** Warning ** AirflowNetwork::Solver::validate_distribution: Heat pump water heater is simulated along with an AirflowNetwork but is not included in the AirflowNetwork.
   ** Warning ** CalcEquipmentFlowRates: "TOTAL HOT WATER LOAD" - Target water temperature is greater than the hot water temperature by (3.86 C)
   **   ~~~   **  Environment=EXTREME_WINTER, at Simulation time=01/06 07:00 - 07:15
   **   ~~~   ** ...target water temperature     = 53.33 C
   **   ~~~   ** ...hot water temperature        = 49.47 C
   **   ~~~   ** ...Target water temperature should be less than or equal to the hot water temperature. Verify temperature setpoints and schedules.
   ** Warning ** SimHVAC: Maximum iterations (20) exceeded for all HVAC loops, at ANNUAL, 01/01 13:30 - 13:45
   **   ~~~   ** The solution for one or more of the Air Loop HVAC systems did not appear to converge
   **   ~~~   ** Air System Named = CENTRAL SYSTEM did not converge for mass flow rate
   **   ~~~   ** Check values should be zero. Most Recent values listed first.
   **   ~~~   ** Demand-to-Supply interface mass flow rate check value iteration history trace: 6.241086E-002,6.241086E-002,6.241086E-002,6.241086E-002,6.241086E-002,6.241086E-002,6.241086E-002,6.241086E-002,6.241086E-002,6.241086E-002,
   **   ~~~   ** Supply-to-demand interface deck 1 mass flow rate check value iteration history trace: 6.241086E-002,6.241086E-002,6.241086E-002,6.241086E-002,6.241086E-002,6.241086E-002,6.241086E-002,6.241086E-002,6.241086E-002,6.241086E-002,
   **   ~~~   ** Air System Named = CENTRAL SYSTEM did not converge for energy
   **   ~~~   ** Check values should be zero. Most Recent values listed first.
   **   ~~~   ** Demand-to-Supply interface energy check value iteration history trace: 1236.676961,1236.676961,1236.676961,1236.676960,1236.676960,1236.676960,1236.676960,1236.676959,1236.676959,1236.676959,
   **   ~~~   ** Supply-to-demand interface deck 1 energy check value iteration history trace: 1964.381511,1964.381510,1964.381510,1964.381509,1964.381509,1964.381509,1964.381508,1964.381508,1964.381507,1964.381507,
   ** Warning ** SimHVAC: Maximum iterations (20) exceeded for all HVAC loops, at ANNUAL, 01/04 17:38 - 17:45
   **   ~~~   ** The solution for one or more of the Air Loop HVAC systems did not appear to converge
   **   ~~~   ** Air System Named = CENTRAL SYSTEM did not converge for mass flow rate
   **   ~~~   ** Check values should be zero. Most Recent values listed first.
   **   ~~~   ** Demand-to-Supply interface mass flow rate check value iteration history trace: 5.115249E-002,5.115249E-002,5.115249E-002,5.115249E-002,5.115249E-002,5.115249E-002,5.115249E-002,5.115249E-002,5.115249E-002,5.115249E-002,
   **   ~~~   ** Supply-to-demand interface deck 1 mass flow rate check value iteration history trace: 5.115249E-002,5.115249E-002,5.115249E-002,5.115249E-002,5.115249E-002,5.115249E-002,5.115249E-002,5.115249E-002,5.115249E-002,5.115249E-002,
   **   ~~~   ** Air System Named = CENTRAL SYSTEM did not converge for energy
   **   ~~~   ** Check values should be zero. Most Recent values listed first.
   **   ~~~   ** Demand-to-Supply interface energy check value iteration history trace: 1009.681393,1009.681393,1009.681393,1009.681393,1009.681393,1009.681393,1009.681393,1009.681393,1009.681393,1009.681393,
   **   ~~~   ** Supply-to-demand interface deck 1 energy check value iteration history trace: 1817.201608,1817.201608,1817.201608,1817.201608,1817.201608,1817.201608,1817.201608,1817.201608,1817.201608,1817.201608,
   ** Warning ** SimHVAC: Maximum iterations (20) exceeded for all HVAC loops, at ANNUAL, 01/10 15:15 - 15:30
   **   ~~~   ** The solution for one or more of the Air Loop HVAC systems did not appear to converge
   **   ~~~   ** Air System Named = CENTRAL SYSTEM did not converge for mass flow rate
   **   ~~~   ** Check values should be zero. Most Recent values listed first.
   **   ~~~   ** Demand-to-Supply interface mass flow rate check value iteration history trace: 7.223463E-002,7.223463E-002,7.223463E-002,7.223463E-002,7.223463E-002,7.223463E-002,7.223463E-002,7.223463E-002,7.223463E-002,7.223463E-002,
   **   ~~~   ** Supply-to-demand interface deck 1 mass flow rate check value iteration history trace: 7.223463E-002,7.223463E-002,7.223463E-002,7.223463E-002,7.223463E-002,7.223463E-002,7.223463E-002,7.223463E-002,7.223463E-002,7.223463E-002,
   **   ~~~   ** Air System Named = CENTRAL SYSTEM did not converge for energy
   **   ~~~   ** Check values should be zero. Most Recent values listed first.
   **   ~~~   ** Demand-to-Supply interface energy check value iteration history trace: 1428.394691,1428.394691,1428.394691,1428.394691,1428.394690,1428.394690,1428.394690,1428.394690,1428.394690,1428.394690,
   **   ~~~   ** Supply-to-demand interface deck 1 energy check value iteration history trace: 2109.518812,2109.518812,2109.518812,2109.518811,2109.518811,2109.518811,2109.518811,2109.518811,2109.518811,2109.518811,
   ** Warning ** SimHVAC: Maximum iterations (20) exceeded for all HVAC loops, at ANNUAL, 01/21 15:08 - 15:15
   **   ~~~   ** The solution for one or more of the Air Loop HVAC systems did not appear to converge
   **   ~~~   ** Air System Named = CENTRAL SYSTEM did not converge for mass flow rate
   **   ~~~   ** Check values should be zero. Most Recent values listed first.
   **   ~~~   ** Demand-to-Supply interface mass flow rate check value iteration history trace: 7.913688E-002,7.913688E-002,7.913688E-002,7.913688E-002,7.913687E-002,7.913687E-002,7.913687E-002,7.913687E-002,7.913687E-002,7.913687E-002,
   **   ~~~   ** Supply-to-demand interface deck 1 mass flow rate check value iteration history trace: 7.913688E-002,7.913688E-002,7.913688E-002,7.913688E-002,7.913687E-002,7.913687E-002,7.913687E-002,7.913687E-002,7.913687E-002,7.913687E-002,
   **   ~~~   ** Air System Named = CENTRAL SYSTEM did not converge for energy
   **   ~~~   ** Check values should be zero. Most Recent values listed first.
   **   ~~~   ** Demand-to-Supply interface energy check value iteration history trace: 1566.452146,1566.452146,1566.452146,1566.452146,1566.452146,1566.452146,1566.452146,1566.452146,1566.452145,1566.452145,
   **   ~~~   ** Supply-to-demand interface deck 1 energy check value iteration history trace: 2456.351236,2456.351236,2456.351236,2456.351235,2456.351235,2456.351235,2456.351235,2456.351235,2456.351235,2456.351234,
   ** Warning ** SimHVAC: Maximum iterations (20) exceeded for all HVAC loops, at ANNUAL, 01/25 11:00 - 11:15
   **   ~~~   ** The solution for one or more of the Air Loop HVAC systems did not appear to converge
   **   ~~~   ** Air System Named = CENTRAL SYSTEM did not converge for mass flow rate
   **   ~~~   ** Check values should be zero. Most Recent values listed first.
   **   ~~~   ** Demand-to-Supply interface mass flow rate check value iteration history trace: 8.914796E-002,8.914796E-002,8.914796E-002,8.914796E-002,8.914796E-002,8.914796E-002,8.914796E-002,8.914796E-002,8.914796E-002,8.914796E-002,
   **   ~~~   ** Supply-to-demand interface deck 1 mass flow rate check value iteration history trace: 8.914796E-002,8.914796E-002,8.914796E-002,8.914796E-002,8.914796E-002,8.914796E-002,8.914796E-002,8.914796E-002,8.914796E-002,8.914796E-002,
   **   ~~~   ** Air System Named = CENTRAL SYSTEM did not converge for energy
   **   ~~~   ** Check values should be zero. Most Recent values listed first.
   **   ~~~   ** Demand-to-Supply interface energy check value iteration history trace: 1766.360774,1766.360774,1766.360774,1766.360774,1766.360774,1766.360774,1766.360773,1766.360773,1766.360773,1766.360773,
   **   ~~~   ** Supply-to-demand interface deck 1 energy check value iteration history trace: 2795.488542,2795.488542,2795.488541,2795.488541,2795.488541,2795.488541,2795.488541,2795.488540,2795.488540,2795.488540,
   ** Warning ** SimHVAC: Maximum iterations (20) exceeded for all HVAC loops, at ANNUAL, 02/02 09:15 - 09:17
   **   ~~~   ** The solution for one or more of the Air Loop HVAC systems did not appear to converge
   **   ~~~   ** Air System Named = CENTRAL SYSTEM did not converge for mass flow rate
   **   ~~~   ** Check values should be zero. Most Recent values listed first.
   **   ~~~   ** Demand-to-Supply interface mass flow rate check value iteration history trace: 7.876790E-002,7.876790E-002,7.876790E-002,7.876790E-002,7.876790E-002,7.876790E-002,7.876790E-002,7.876790E-002,7.876790E-002,7.876790E-002,
   **   ~~~   ** Supply-to-demand interface deck 1 mass flow rate check value iteration history trace: 7.876790E-002,7.876790E-002,7.876790E-002,7.876790E-002,7.876790E-002,7.876790E-002,7.876790E-002,7.876790E-002,7.876790E-002,7.876790E-002,
   **   ~~~   ** Air System Named = CENTRAL SYSTEM did not converge for energy
   **   ~~~   ** Check values should be zero. Most Recent values listed first.
   **   ~~~   ** Demand-to-Supply interface energy check value iteration history trace: 1560.876716,1560.876716,1560.876716,1560.876716,1560.876716,1560.876716,1560.876716,1560.876716,1560.876716,1560.876716,
   **   ~~~   ** Supply-to-demand interface deck 1 energy check value iteration history trace: 2701.183667,2701.183666,2701.183666,2701.183666,2701.183666,2701.183666,2701.183666,2701.183666,2701.183666,2701.183666,
   ** Warning ** SimHVAC: Maximum iterations (20) exceeded for all HVAC loops, at ANNUAL, 02/08 09:00 - 09:15
   **   ~~~   ** The solution for one or more of the Air Loop HVAC systems did not appear to converge
   **   ~~~   ** Air System Named = CENTRAL SYSTEM did not converge for mass flow rate
   **   ~~~   ** Check values should be zero. Most Recent values listed first.
   **   ~~~   ** Demand-to-Supply interface mass flow rate check value iteration history trace: 6.704250E-002,6.704250E-002,6.704250E-002,6.704250E-002,6.704250E-002,6.704250E-002,6.704250E-002,6.704250E-002,6.704250E-002,6.704250E-002,
   **   ~~~   ** Supply-to-demand interface deck 1 mass flow rate check value iteration history trace: 6.704250E-002,6.704250E-002,6.704250E-002,6.704250E-002,6.704250E-002,6.704250E-002,6.704250E-002,6.704250E-002,6.704250E-002,6.704250E-002,
   **   ~~~   ** Air System Named = CENTRAL SYSTEM did not converge for energy
   **   ~~~   ** Check values should be zero. Most Recent values listed first.
   **   ~~~   ** Demand-to-Supply interface energy check value iteration history trace: 1328.560688,1328.560688,1328.560688,1328.560688,1328.560688,1328.560688,1328.560688,1328.560688,1328.560688,1328.560688,
   **   ~~~   ** Supply-to-demand interface deck 1 energy check value iteration history trace: 2413.859352,2413.859352,2413.859352,2413.859352,2413.859351,2413.859351,2413.859351,2413.859351,2413.859351,2413.859351,
   ** Warning ** SimHVAC: Maximum iterations (20) exceeded for all HVAC loops, at ANNUAL, 02/10 20:15 - 20:30
   **   ~~~   ** The solution for one or more of the Air Loop HVAC systems did not appear to converge
   **   ~~~   ** Air System Named = CENTRAL SYSTEM did not converge for mass flow rate
   **   ~~~   ** Check values should be zero. Most Recent values listed first.
   **   ~~~   ** Demand-to-Supply interface mass flow rate check value iteration history trace: 9.679592E-002,9.679592E-002,9.679592E-002,9.679592E-002,9.679592E-002,9.679592E-002,9.679592E-002,9.679592E-002,9.679592E-002,9.679592E-002,
   **   ~~~   ** Supply-to-demand interface deck 1 mass flow rate check value iteration history trace: 9.679592E-002,9.679592E-002,9.679592E-002,9.679592E-002,9.679592E-002,9.679592E-002,9.679592E-002,9.679592E-002,9.679592E-002,9.679592E-002,
   **   ~~~   ** Air System Named = CENTRAL SYSTEM did not converge for energy
   **   ~~~   ** Check values should be zero. Most Recent values listed first.
   **   ~~~   ** Demand-to-Supply interface energy check value iteration history trace: 1920.598006,1920.598006,1920.598006,1920.598006,1920.598006,1920.598006,1920.598005,1920.598005,1920.598005,1920.598005,
   **   ~~~   ** Supply-to-demand interface deck 1 energy check value iteration history trace: 2962.010919,2962.010918,2962.010918,2962.010918,2962.010918,2962.010918,2962.010918,2962.010917,2962.010917,2962.010917,
   ** Warning ** SimHVAC: Maximum iterations (20) exceeded for all HVAC loops, at ANNUAL, 03/06 16:23 - 16:30
   **   ~~~   ** The solution for one or more of the Air Loop HVAC systems did not appear to converge
   **   ~~~   ** Air System Named = CENTRAL SYSTEM did not converge for mass flow rate
   **   ~~~   ** Check values should be zero. Most Recent values listed first.
   **   ~~~   ** Demand-to-Supply interface mass flow rate check value iteration history trace: 7.198655E-002,7.198655E-002,7.198655E-002,7.198655E-002,7.198655E-002,7.198655E-002,7.198655E-002,7.198655E-002,7.198655E-002,7.198655E-002,
   **   ~~~   ** Supply-to-demand interface deck 1 mass flow rate check value iteration history trace: 7.198655E-002,7.198655E-002,7.198655E-002,7.198655E-002,7.198655E-002,7.198655E-002,7.198655E-002,7.198655E-002,7.198655E-002,7.198655E-002,
   **   ~~~   ** Air System Named = CENTRAL SYSTEM did not converge for energy
   **   ~~~   ** Check values should be zero. Most Recent values listed first.
   **   ~~~   ** Demand-to-Supply interface energy check value iteration history trace: 1418.892354,1418.892354,1418.892354,1418.892354,1418.892353,1418.892353,1418.892353,1418.892353,1418.892353,1418.892353,
   **   ~~~   ** Supply-to-demand interface deck 1 energy check value iteration history trace: 2453.957178,2453.957178,2453.957178,2453.957178,2453.957178,2453.957178,2453.957177,2453.957177,2453.957177,2453.957177,
   ** Warning ** SimHVAC: Maximum iterations (20) exceeded for all HVAC loops, at ANNUAL, 03/10 18:30 - 18:45
   **   ~~~   ** The solution for one or more of the Air Loop HVAC systems did not appear to converge
   **   ~~~   ** Air System Named = CENTRAL SYSTEM did not converge for mass flow rate
   **   ~~~   ** Check values should be zero. Most Recent values listed first.
   **   ~~~   ** Demand-to-Supply interface mass flow rate check value iteration history trace: 0.104904,0.104904,0.104904,0.104904,0.104904,0.104904,0.104904,0.104904,0.104904,0.104904,
   **   ~~~   ** Supply-to-demand interface deck 1 mass flow rate check value iteration history trace: 0.104904,0.104904,0.104904,0.104904,0.104904,0.104904,0.104904,0.104904,0.104904,0.104904,
   **   ~~~   ** Air System Named = CENTRAL SYSTEM did not converge for energy
   **   ~~~   ** Check values should be zero. Most Recent values listed first.
   **   ~~~   ** Demand-to-Supply interface energy check value iteration history trace: 2078.905331,2078.905331,2078.905330,2078.905330,2078.905330,2078.905330,2078.905330,2078.905330,2078.905330,2078.905329,
   **   ~~~   ** Supply-to-demand interface deck 1 energy check value iteration history trace: 3195.070543,3195.070543,3195.070543,3195.070542,3195.070542,3195.070542,3195.070542,3195.070541,3195.070541,3195.070541,
   ** Warning ** SimHVAC: Maximum iterations (20) exceeded for all HVAC loops, at ANNUAL, 03/14 10:50 - 10:55
   **   ~~~   ** The solution for one or more of the Air Loop HVAC systems did not appear to converge
   **   ~~~   ** Air System Named = CENTRAL SYSTEM did not converge for mass flow rate
   **   ~~~   ** Check values should be zero. Most Recent values listed first.
   **   ~~~   ** Demand-to-Supply interface mass flow rate check value iteration history trace: 0.103061,0.103061,0.103061,0.103061,0.103061,0.103061,0.103061,0.103061,0.103061,0.103061,
   **   ~~~   ** Supply-to-demand interface deck 1 mass flow rate check value iteration history trace: 0.103061,0.103061,0.103061,0.103061,0.103061,0.103061,0.103061,0.103061,0.103061,0.103061,
   **   ~~~   ** Air System Named = CENTRAL SYSTEM did not converge for energy
   **   ~~~   ** Check values should be zero. Most Recent values listed first.
   **   ~~~   ** Demand-to-Supply interface energy check value iteration history trace: 2042.358097,2042.358097,2042.358097,2042.358096,2042.358096,2042.358096,2042.358096,2042.358096,2042.358096,2042.358096,
   **   ~~~   ** Supply-to-demand interface deck 1 energy check value iteration history trace: 3220.798468,3220.798468,3220.798467,3220.798467,3220.798467,3220.798467,3220.798467,3220.798466,3220.798466,3220.798466,
   ** Warning ** SimHVAC: Maximum iterations (20) exceeded for all HVAC loops, at ANNUAL, 03/15 17:55 - 18:00
   **   ~~~   ** The solution for one or more of the Air Loop HVAC systems did not appear to converge
   **   ~~~   ** Air System Named = CENTRAL SYSTEM did not converge for mass flow rate
   **   ~~~   ** Check values should be zero. Most Recent values listed first.
   **   ~~~   ** Demand-to-Supply interface mass flow rate check value iteration history trace: 6.222956E-002,6.222956E-002,6.222956E-002,6.222956E-002,6.222956E-002,6.222956E-002,6.222956E-002,6.222956E-002,6.222956E-002,6.222956E-002,
   **   ~~~   ** Supply-to-demand interface deck 1 mass flow rate check value iteration history trace: 6.222956E-002,6.222956E-002,6.222956E-002,6.222956E-002,6.222956E-002,6.222956E-002,6.222956E-002,6.222956E-002,6.222956E-002,6.222956E-002,
   **   ~~~   ** Air System Named = CENTRAL SYSTEM did not converge for energy
   **   ~~~   ** Check values should be zero. Most Recent values listed first.
   **   ~~~   ** Demand-to-Supply interface energy check value iteration history trace: 1222.225212,1222.225212,1222.225212,1222.225212,1222.225212,1222.225211,1222.225211,1222.225211,1222.225211,1222.225211,
   **   ~~~   ** Supply-to-demand interface deck 1 energy check value iteration history trace: 2117.415256,2117.415256,2117.415256,2117.415256,2117.415256,2117.415255,2117.415255,2117.415255,2117.415255,2117.415255,
   ** Warning ** SimHVAC: Maximum iterations (20) exceeded for all HVAC loops, at ANNUAL, 03/16 12:45 - 12:52
   **   ~~~   ** The solution for one or more of the Air Loop HVAC systems did not appear to converge
   **   ~~~   ** Air System Named = CENTRAL SYSTEM did not converge for mass flow rate
   **   ~~~   ** Check values should be zero. Most Recent values listed first.
   **   ~~~   ** Demand-to-Supply interface mass flow rate check value iteration history trace: 6.057521E-002,6.057521E-002,6.057521E-002,6.057521E-002,6.057521E-002,6.057521E-002,6.057521E-002,6.057521E-002,6.057521E-002,6.057521E-002,
   **   ~~~   ** Supply-to-demand interface deck 1 mass flow rate check value iteration history trace: 6.057521E-002,6.057521E-002,6.057521E-002,6.057521E-002,6.057521E-002,6.057521E-002,6.057521E-002,6.057521E-002,6.057521E-002,6.057521E-002,
   **   ~~~   ** Air System Named = CENTRAL SYSTEM did not converge for energy
   **   ~~~   ** Check values should be zero. Most Recent values listed first.
   **   ~~~   ** Demand-to-Supply interface energy check value iteration history trace: 1189.180922,1189.180922,1189.180922,1189.180922,1189.180922,1189.180922,1189.180922,1189.180922,1189.180922,1189.180922,
   **   ~~~   ** Supply-to-demand interface deck 1 energy check value iteration history trace: 2108.773217,2108.773217,2108.773217,2108.773217,2108.773217,2108.773217,2108.773217,2108.773216,2108.773216,2108.773216,
   ** Warning ** SimHVAC: Maximum iterations (20) exceeded for all HVAC loops, at ANNUAL, 03/30 10:30 - 10:45
   **   ~~~   ** The solution for one or more of the Air Loop HVAC systems did not appear to converge
   **   ~~~   ** Air System Named = CENTRAL SYSTEM did not converge for mass flow rate
   **   ~~~   ** Check values should be zero. Most Recent values listed first.
   **   ~~~   ** Demand-to-Supply interface mass flow rate check value iteration history trace: 7.250755E-002,7.250755E-002,7.250755E-002,7.250755E-002,7.250755E-002,7.250755E-002,7.250755E-002,7.250755E-002,7.250755E-002,7.250755E-002,
   **   ~~~   ** Supply-to-demand interface deck 1 mass flow rate check value iteration history trace: 7.250755E-002,7.250755E-002,7.250755E-002,7.250755E-002,7.250755E-002,7.250755E-002,7.250755E-002,7.250755E-002,7.250755E-002,7.250755E-002,
   **   ~~~   ** Air System Named = CENTRAL SYSTEM did not converge for energy
   **   ~~~   ** Check values should be zero. Most Recent values listed first.
   **   ~~~   ** Demand-to-Supply interface energy check value iteration history trace: 1434.596898,1434.596898,1434.596898,1434.596898,1434.596898,1434.596898,1434.596898,1434.596898,1434.596898,1434.596897,
   **   ~~~   ** Supply-to-demand interface deck 1 energy check value iteration history trace: 2549.141392,2549.141392,2549.141392,2549.141392,2549.141392,2549.141392,2549.141392,2549.141392,2549.141392,2549.141392,
   ************* Simulation Error Summary *************
   ** Warning ** The following Report Variables were requested but not generated -- check.rdd file
   **   ~~~   ** Either the IDF did not contain these elements, the variable name is misspelled,
   **   ~~~   ** or the requested variable is an advanced output which requires Output : Diagnostics, DisplayAdvancedReportVariables;
   ************* Key=*, VarName=BASEBOARD TOTAL HEATING ENERGY, Frequency=
   ************* Key=*, VarName=WATER HEATER NATURALGAS ENERGY, Frequency=
   ************* Key=*, VarName=COOLING COIL TOTAL HEATING ENERGY, Frequency=
   ************* There are 34 unused schedules in input.
   ************* There are 388 unused week schedules in input.
   ************* There are 396 unused day schedules in input.
   ************* Use Output:Diagnostics,DisplayUnusedSchedules; to see them.
   *************
   ************* ===== Recurring Error Summary =====
   ************* The following recurring error messages occurred.
   *************
   *************  ** Warning ** "TOTAL HOT WATER LOAD" - Target water temperature should be less than or equal to the hot water temperature error continues...
   *************  **   ~~~   **   This error occurred 128623 total times;
   *************  **   ~~~   **   during Warmup 0 times;
   *************  **   ~~~   **   during Sizing 0 times.
   *************  **   ~~~   **   Max=13.988803  Min=1.042671E-003
   *************
   *************  ** Warning ** SimHVAC: Exceeding Maximum iterations for all HVAC loops, during ANNUAL continues
   *************  **   ~~~   **   This error occurred 24 total times;
   *************  **   ~~~   **   during Warmup 0 times;
   *************  **   ~~~   **   during Sizing 0 times.
   *************
   *************
   ************* ===== Final Error Summary =====
   ************* The following error categories occurred.  Consider correcting or noting.
   ************* Nominally Unused Constructions
   ************* ..The nominally unused constructions warning is provided to alert you to potential conditions that can cause
   ************* ..extra time during simulation. Each construction is calculated by the algorithm indicated in the HeatBalanceAlgorithm
   ************* ..object. You may remove the constructions indicated (when you use the DisplayExtraWarnings option).
   *************
   ************* EnergyPlus Warmup Error Summary. During Warmup: 1 Warning; 0 Severe Errors.
   ************* EnergyPlus Sizing Error Summary. During Sizing: 4 Warning; 0 Severe Errors.
   ************* EnergyPlus Completed Successfully-- 128678 Warning; 0 Severe Errors; Elapsed Time=00hr 01min 24.59sec
