Program Version,EnergyPlus, Version 22.2.0-c249759bad, YMD=2023.09.01 18:57,
   ************* Beginning Zone Sizing Calculations
   ** Warning ** ProcessScheduleInput: Schedule:Constant="ALWAYS ON DISCRETE", Schedule Type Limits Name="ONOFF" not found -- will not be validated
   ** Warning ** Foundation:Kiva="KIVA FOUNDATION", no Interior Horizontal Insulation Material Name defined
   **   ~~~   ** Interior Horizontal Insulation Depth will not be used.
   ** Warning ** CheckUsedConstructions: There are 15 nominally unused constructions in input.
   **   ~~~   ** Each Unused construction is shown.
   ************* Construction=INTERIOR FLOOR
   ************* Construction=INTERIOR WINDOW
   ************* Construction=EXTERIOR DOOR
   ************* Construction=INTERIOR DOOR
   ************* Construction=GABLE CONSTRUCTION
   ************* Construction=CRAWL_FLOOR
   ************* Construction=INSULATED PIPE
   ************* Construction=PLAIN PIPE
   ************* Construction=TDD PIPE
   ************* Construction=TDD DOME
   ************* Construction=TDD DIFFUSER
   ************* Construction=CRAWL WALL
   ************* Construction=CEILING-FLOOR-LAYER
   ************* Construction=SLAB CONSTRUCTION W FULL R10 INSULATION
   ************* Construction=SLAB CONSTRUCTION W FULL R5 INSULATION
   ** Warning ** GetDXCoils: Coil:Heating:DX:SingleSpeed="DX_HEATING_COIL" curve values
   **   ~~~   ** ... Defrost Energy Input Ratio Function of Temperature Curve Name = DEFROSTEIR output is not equal to 1.0 (+ or - 10%) at rated conditions.
   **   ~~~   ** ... Curve output at rated conditions = 0.152
   ************* Beginning System Sizing Calculations
   ************* Beginning Plant Sizing Calculations
   ** Warning ** SizeDXCoil Coil:Cooling:DX:SingleSpeed DX_COOLING_COIL
   **   ~~~   ** ...Gross Rated Total Cooling Capacity [W] will be limited by the maximum rated volume flow per rated total capacity ratio.
   **   ~~~   ** ...DX coil volume flow rate ( m3/s ) = 0.401080
   **   ~~~   ** ...Requested capacity ( W ) = 6356.397
   **   ~~~   ** ...Requested flow/capacity ratio ( m3/s/W ) = 6.309E-005
   **   ~~~   ** ...Maximum flow/capacity ratio ( m3/s/W ) = 6.041E-005
   **   ~~~   ** ...Adjusted capacity ( W ) = 6639.300
   ** Warning ** Coil:WaterHeating:AirToWaterHeatPump:Wrapped "HEAT PUMP WATER HEATER EVAPORATOR": Rated air volume flow rate per watt of rated total water heating capacity is out of range
   **   ~~~   ** Min Rated Vol Flow Per Watt=[4.027E-005], Rated Vol Flow Per Watt=[1.510E-004], Max Rated Vol Flow Per Watt=[8.056E-005]. See Input-Output Reference Manual for valid range.
   ************* SizeFan: : Potential issue with equipment sizing for Fan:OnOff HEAT PUMP WATER HEATER FAN
   **   ~~~   ** User-Specified Maximum Flow Rate [m3/s] = 0.22653
   **   ~~~   ** differs from Design Size Maximum Flow Rate [m3/s] = 7.55250E-002
   **   ~~~   ** This may, or may not, indicate mismatched component sizes.
   **   ~~~   ** Verify that the value entered is intended and is consistent with other components.
   ** Warning ** Water heater = WATER HEATER TANK:  Recovery Efficiency and Energy Factor could not be calculated during the test for standard ratings
   **   ~~~   ** Setpoint was never recovered and/or heater never turned on
   ** Warning ** Check input. Pump nominal power or motor efficiency is set to 0, for pump=MAINS PRESSURE
   ** Warning ** AirflowNetwork::Solver::validate_distribution: Heat pump water heater is simulated along with an AirflowNetwork but is not included in the AirflowNetwork.
   ** Warning ** Output:Meter: invalid Key Name="ELECTRIC_RANGE:INTERIOREQUIPMENT:ELECTRICITY" - not found.
   ** Warning ** Output:Meter: invalid Key Name="ELECTRIC_DRYER:INTERIOREQUIPMENT:ELECTRICITY" - not found.
   ** Warning ** Output:Meter: invalid Key Name="HEATRECOVERY:ELECTRICITY" - not found.
   ** Warning ** Output:Meter: invalid Key Name="HEATING:NATURALGAS" - not found.
   ** Warning ** Output:Meter: invalid Key Name="WATERSYSTEMS:NATURALGAS" - not found.
   ** Warning ** Output:Meter: invalid Key Name="PROPANE:FACILITY" - not found.
   ** Warning ** Output:Meter: invalid Key Name="HEATING:PROPANE" - not found.
   ************* Testing Individual Branch Integrity
   ************* All Branches passed integrity testing
   ************* Testing Individual Supply Air Path Integrity
   ************* All Supply Air Paths passed integrity testing
   ************* Testing Individual Return Air Path Integrity
   ************* All Return Air Paths passed integrity testing
   ************* No node connection errors were found.
   ************* Beginning Simulation
   ** Warning ** CalcEquipmentFlowRates: "TOTAL HOT WATER LOAD" - Target water temperature is greater than the hot water temperature by (2.28 C)
   **   ~~~   **  Environment=EXTREME_WINTER, at Simulation time=01/29 03:45 - 04:00
   **   ~~~   ** ...target water temperature     = 53.33 C
   **   ~~~   ** ...hot water temperature        = 51.05 C
   **   ~~~   ** ...Target water temperature should be less than or equal to the hot water temperature. Verify temperature setpoints and schedules.
   ** Warning ** SimHVAC: Maximum iterations (20) exceeded for all HVAC loops, at ANNUAL, 03/14 20:15 - 20:20
   **   ~~~   ** The solution for one or more of the Air Loop HVAC systems did not appear to converge
   **   ~~~   ** Air System Named = CENTRAL SYSTEM did not converge for mass flow rate
   **   ~~~   ** Check values should be zero. Most Recent values listed first.
   **   ~~~   ** Demand-to-Supply interface mass flow rate check value iteration history trace: 7.829348E-002,7.829348E-002,7.829348E-002,7.829348E-002,7.829348E-002,7.829348E-002,7.829348E-002,7.829348E-002,7.829348E-002,7.829348E-002,
   **   ~~~   ** Supply-to-demand interface deck 1 mass flow rate check value iteration history trace: 7.829348E-002,7.829348E-002,7.829348E-002,7.829348E-002,7.829348E-002,7.829348E-002,7.829348E-002,7.829348E-002,7.829348E-002,7.829348E-002,
   **   ~~~   ** Air System Named = CENTRAL SYSTEM did not converge for energy
   **   ~~~   ** Check values should be zero. Most Recent values listed first.
   **   ~~~   ** Demand-to-Supply interface energy check value iteration history trace: 1544.733851,1544.733851,1544.733851,1544.733851,1544.733851,1544.733850,1544.733850,1544.733850,1544.733850,1544.733850,
   **   ~~~   ** Supply-to-demand interface deck 1 energy check value iteration history trace: 2336.284799,2336.284798,2336.284798,2336.284798,2336.284798,2336.284798,2336.284798,2336.284797,2336.284797,2336.284797,
   ** Warning ** SimHVAC: Maximum iterations (20) exceeded for all HVAC loops, at ANNUAL, 03/16 13:38 - 13:45
   **   ~~~   ** The solution for one or more of the Air Loop HVAC systems did not appear to converge
   **   ~~~   ** Air System Named = CENTRAL SYSTEM did not converge for mass flow rate
   **   ~~~   ** Check values should be zero. Most Recent values listed first.
   **   ~~~   ** Demand-to-Supply interface mass flow rate check value iteration history trace: 6.583055E-002,6.583055E-002,6.583055E-002,6.583055E-002,6.583055E-002,6.583055E-002,6.583055E-002,6.583055E-002,6.583055E-002,6.583055E-002,
   **   ~~~   ** Supply-to-demand interface deck 1 mass flow rate check value iteration history trace: 6.583055E-002,6.583055E-002,6.583055E-002,6.583055E-002,6.583055E-002,6.583055E-002,6.583055E-002,6.583055E-002,6.583055E-002,6.583055E-002,
   **   ~~~   ** Air System Named = CENTRAL SYSTEM did not converge for energy
   **   ~~~   ** Check values should be zero. Most Recent values listed first.
   **   ~~~   ** Demand-to-Supply interface energy check value iteration history trace: 1304.568069,1304.568069,1304.568069,1304.568069,1304.568069,1304.568068,1304.568068,1304.568068,1304.568068,1304.568068,
   **   ~~~   ** Supply-to-demand interface deck 1 energy check value iteration history trace: 2009.981165,2009.981165,2009.981165,2009.981165,2009.981165,2009.981165,2009.981164,2009.981164,2009.981164,2009.981164,
   ** Warning ** SimHVAC: Maximum iterations (20) exceeded for all HVAC loops, at ANNUAL, 03/26 12:30 - 12:45
   **   ~~~   ** The solution for one or more of the Air Loop HVAC systems did not appear to converge
   **   ~~~   ** Air System Named = CENTRAL SYSTEM did not converge for mass flow rate
   **   ~~~   ** Check values should be zero. Most Recent values listed first.
   **   ~~~   ** Demand-to-Supply interface mass flow rate check value iteration history trace: 6.258380E-002,6.258380E-002,6.258380E-002,6.258380E-002,6.258380E-002,6.258380E-002,6.258380E-002,6.258380E-002,6.258380E-002,6.258380E-002,
   **   ~~~   ** Supply-to-demand interface deck 1 mass flow rate check value iteration history trace: 6.258380E-002,6.258380E-002,6.258380E-002,6.258380E-002,6.258380E-002,6.258380E-002,6.258380E-002,6.258380E-002,6.258380E-002,6.258380E-002,
   **   ~~~   ** Air System Named = CENTRAL SYSTEM did not converge for energy
   **   ~~~   ** Check values should be zero. Most Recent values listed first.
   **   ~~~   ** Demand-to-Supply interface energy check value iteration history trace: 1234.917989,1234.917988,1234.917988,1234.917988,1234.917988,1234.917988,1234.917988,1234.917988,1234.917988,1234.917988,
   **   ~~~   ** Supply-to-demand interface deck 1 energy check value iteration history trace: 1984.908799,1984.908799,1984.908799,1984.908799,1984.908799,1984.908799,1984.908799,1984.908799,1984.908799,1984.908799,
   ** Warning ** SimHVAC: Maximum iterations (20) exceeded for all HVAC loops, at ANNUAL, 04/07 00:45 - 01:00
   **   ~~~   ** The solution for one or more of the Air Loop HVAC systems did not appear to converge
   **   ~~~   ** Air System Named = CENTRAL SYSTEM did not converge for mass flow rate
   **   ~~~   ** Check values should be zero. Most Recent values listed first.
   **   ~~~   ** Demand-to-Supply interface mass flow rate check value iteration history trace: 9.454698E-002,9.454698E-002,9.454698E-002,9.454698E-002,9.454698E-002,9.454698E-002,9.454698E-002,9.454698E-002,9.454698E-002,9.454698E-002,
   **   ~~~   ** Supply-to-demand interface deck 1 mass flow rate check value iteration history trace: 9.454698E-002,9.454698E-002,9.454698E-002,9.454698E-002,9.454698E-002,9.454698E-002,9.454698E-002,9.454698E-002,9.454698E-002,9.454698E-002,
   **   ~~~   ** Air System Named = CENTRAL SYSTEM did not converge for energy
   **   ~~~   ** Check values should be zero. Most Recent values listed first.
   **   ~~~   ** Demand-to-Supply interface energy check value iteration history trace: 1760.591157,1760.591157,1760.591157,1760.591156,1760.591156,1760.591156,1760.591156,1760.591156,1760.591156,1760.591156,
   **   ~~~   ** Supply-to-demand interface deck 1 energy check value iteration history trace: 2619.053307,2619.053307,2619.053307,2619.053307,2619.053306,2619.053306,2619.053306,2619.053306,2619.053306,2619.053306,
   ** Warning ** SimHVAC: Maximum iterations (20) exceeded for all HVAC loops, at ANNUAL, 04/08 10:35 - 10:40
   **   ~~~   ** The solution for one or more of the Air Loop HVAC systems did not appear to converge
   **   ~~~   ** Air System Named = CENTRAL SYSTEM did not converge for mass flow rate
   **   ~~~   ** Check values should be zero. Most Recent values listed first.
   **   ~~~   ** Demand-to-Supply interface mass flow rate check value iteration history trace: 5.990257E-002,5.990257E-002,5.990257E-002,5.990257E-002,5.990257E-002,5.990257E-002,5.990257E-002,5.990257E-002,5.990257E-002,5.990257E-002,
   **   ~~~   ** Supply-to-demand interface deck 1 mass flow rate check value iteration history trace: 5.990257E-002,5.990257E-002,5.990257E-002,5.990257E-002,5.990257E-002,5.990257E-002,5.990257E-002,5.990257E-002,5.990257E-002,5.990257E-002,
   **   ~~~   ** Air System Named = CENTRAL SYSTEM did not converge for energy
   **   ~~~   ** Check values should be zero. Most Recent values listed first.
   **   ~~~   ** Demand-to-Supply interface energy check value iteration history trace: 1179.626528,1179.626528,1179.626528,1179.626528,1179.626528,1179.626528,1179.626528,1179.626528,1179.626528,1179.626528,
   **   ~~~   ** Supply-to-demand interface deck 1 energy check value iteration history trace: 2164.676747,2164.676747,2164.676747,2164.676747,2164.676747,2164.676746,2164.676746,2164.676746,2164.676746,2164.676746,
   ** Warning ** SimHVAC: Maximum iterations (20) exceeded for all HVAC loops, at ANNUAL, 04/17 19:00 - 19:05
   **   ~~~   ** The solution for one or more of the Air Loop HVAC systems did not appear to converge
   **   ~~~   ** Air System Named = CENTRAL SYSTEM did not converge for mass flow rate
   **   ~~~   ** Check values should be zero. Most Recent values listed first.
   **   ~~~   ** Demand-to-Supply interface mass flow rate check value iteration history trace: 8.124820E-002,8.124820E-002,8.124820E-002,8.124820E-002,8.124820E-002,8.124820E-002,8.124820E-002,8.124820E-002,8.124820E-002,8.124820E-002,
   **   ~~~   ** Supply-to-demand interface deck 1 mass flow rate check value iteration history trace: 8.124820E-002,8.124820E-002,8.124820E-002,8.124820E-002,8.124820E-002,8.124820E-002,8.124820E-002,8.124820E-002,8.124820E-002,8.124820E-002,
   **   ~~~   ** Air System Named = CENTRAL SYSTEM did not converge for energy
   **   ~~~   ** Check values should be zero. Most Recent values listed first.
   **   ~~~   ** Demand-to-Supply interface energy check value iteration history trace: 1603.526906,1603.526906,1603.526906,1603.526905,1603.526905,1603.526905,1603.526905,1603.526905,1603.526905,1603.526905,
   **   ~~~   ** Supply-to-demand interface deck 1 energy check value iteration history trace: 2563.712859,2563.712858,2563.712858,2563.712858,2563.712858,2563.712858,2563.712858,2563.712858,2563.712857,2563.712857,
   ** Warning ** SimHVAC: Maximum iterations (20) exceeded for all HVAC loops, at ANNUAL, 05/13 07:42 - 07:44
   **   ~~~   ** The solution for one or more of the Air Loop HVAC systems did not appear to converge
   **   ~~~   ** Air System Named = CENTRAL SYSTEM did not converge for mass flow rate
   **   ~~~   ** Check values should be zero. Most Recent values listed first.
   **   ~~~   ** Demand-to-Supply interface mass flow rate check value iteration history trace: 3.630426E-002,3.630426E-002,3.630426E-002,3.630426E-002,3.630426E-002,3.630426E-002,3.630426E-002,3.630426E-002,3.630426E-002,3.630426E-002,
   **   ~~~   ** Supply-to-demand interface deck 1 mass flow rate check value iteration history trace: 3.630426E-002,3.630426E-002,3.630426E-002,3.630426E-002,3.630426E-002,3.630426E-002,3.630426E-002,3.630426E-002,3.630426E-002,3.630426E-002,
   **   ~~~   ** Air System Named = CENTRAL SYSTEM did not converge for energy
   **   ~~~   ** Check values should be zero. Most Recent values listed first.
   **   ~~~   ** Demand-to-Supply interface energy check value iteration history trace: 718.164695,718.164695,718.164695,718.164694,718.164694,718.164694,718.164694,718.164694,718.164694,718.164694,
   **   ~~~   ** Supply-to-demand interface deck 1 energy check value iteration history trace: 1343.091173,1343.091173,1343.091173,1343.091173,1343.091173,1343.091173,1343.091173,1343.091173,1343.091173,1343.091173,
   ** Warning ** SimHVAC: Maximum iterations (20) exceeded for all HVAC loops, at ANNUAL, 05/29 04:45 - 05:00
   **   ~~~   ** The solution for one or more of the Air Loop HVAC systems did not appear to converge
   **   ~~~   ** Air System Named = CENTRAL SYSTEM did not converge for mass flow rate
   **   ~~~   ** Check values should be zero. Most Recent values listed first.
   **   ~~~   ** Demand-to-Supply interface mass flow rate check value iteration history trace: 2.227965E-002,2.227965E-002,2.227965E-002,2.227965E-002,2.227965E-002,2.227965E-002,2.227965E-002,2.227965E-002,2.227965E-002,2.227965E-002,
   **   ~~~   ** Supply-to-demand interface deck 1 mass flow rate check value iteration history trace: 2.227965E-002,2.227965E-002,2.227965E-002,2.227965E-002,2.227965E-002,2.227965E-002,2.227965E-002,2.227965E-002,2.227965E-002,2.227965E-002,
   **   ~~~   ** Air System Named = CENTRAL SYSTEM did not converge for energy
   **   ~~~   ** Check values should be zero. Most Recent values listed first.
   **   ~~~   ** Demand-to-Supply interface energy check value iteration history trace: 413.882179,413.882179,413.882179,413.882179,413.882179,413.882179,413.882179,413.882179,413.882179,413.882179,
   **   ~~~   ** Supply-to-demand interface deck 1 energy check value iteration history trace: 745.547678,745.547678,745.547678,745.547678,745.547678,745.547678,745.547677,745.547677,745.547677,745.547677,
   ** Warning ** SimHVAC: Maximum iterations (20) exceeded for all HVAC loops, at ANNUAL, 05/29 09:15 - 09:30
   **   ~~~   ** The solution for one or more of the Air Loop HVAC systems did not appear to converge
   **   ~~~   ** Air System Named = CENTRAL SYSTEM did not converge for mass flow rate
   **   ~~~   ** Check values should be zero. Most Recent values listed first.
   **   ~~~   ** Demand-to-Supply interface mass flow rate check value iteration history trace: 5.282154E-002,5.282154E-002,5.282154E-002,5.282154E-002,5.282154E-002,5.282154E-002,5.282154E-002,5.282154E-002,5.282154E-002,5.282154E-002,
   **   ~~~   ** Supply-to-demand interface deck 1 mass flow rate check value iteration history trace: 5.282154E-002,5.282154E-002,5.282154E-002,5.282154E-002,5.282154E-002,5.282154E-002,5.282154E-002,5.282154E-002,5.282154E-002,5.282154E-002,
   **   ~~~   ** Air System Named = CENTRAL SYSTEM did not converge for energy
   **   ~~~   ** Check values should be zero. Most Recent values listed first.
   **   ~~~   ** Demand-to-Supply interface energy check value iteration history trace: 1029.730674,1029.730674,1029.730674,1029.730674,1029.730674,1029.730674,1029.730674,1029.730674,1029.730674,1029.730674,
   **   ~~~   ** Supply-to-demand interface deck 1 energy check value iteration history trace: 1863.442933,1863.442933,1863.442933,1863.442933,1863.442933,1863.442933,1863.442933,1863.442932,1863.442932,1863.442932,
   ** Warning ** SimHVAC: Maximum iterations (20) exceeded for all HVAC loops, at ANNUAL, 06/21 09:05 - 09:10
   **   ~~~   ** The solution for one or more of the Air Loop HVAC systems did not appear to converge
   **   ~~~   ** Air System Named = CENTRAL SYSTEM did not converge for mass flow rate
   **   ~~~   ** Check values should be zero. Most Recent values listed first.
   **   ~~~   ** Demand-to-Supply interface mass flow rate check value iteration history trace: 0.159971,0.159971,0.159971,0.159971,0.159971,0.159971,0.159971,0.159971,0.159971,0.159971,
   **   ~~~   ** Supply-to-demand interface deck 1 mass flow rate check value iteration history trace: 0.159971,0.159971,0.159971,0.159971,0.159971,0.159971,0.159971,0.159971,0.159971,0.159971,
   **   ~~~   ** Air System Named = CENTRAL SYSTEM did not converge for energy
   **   ~~~   ** Check values should be zero. Most Recent values listed first.
   **   ~~~   ** Demand-to-Supply interface energy check value iteration history trace: 3810.952937,3810.952937,3810.952937,3810.952938,3810.952938,3810.952939,3810.952939,3810.952940,3810.952940,3810.952941,
   **   ~~~   ** Supply-to-demand interface deck 1 energy check value iteration history trace: 2060.394351,2060.394351,2060.394352,2060.394352,2060.394352,2060.394352,2060.394353,2060.394353,2060.394353,2060.394353,
   ** Warning ** SimHVAC: Maximum iterations (20) exceeded for all HVAC loops, at ANNUAL, 06/23 23:38 - 23:45
   **   ~~~   ** The solution for one or more of the Air Loop HVAC systems did not appear to converge
   **   ~~~   ** Air System Named = CENTRAL SYSTEM did not converge for mass flow rate
   **   ~~~   ** Check values should be zero. Most Recent values listed first.
   **   ~~~   ** Demand-to-Supply interface mass flow rate check value iteration history trace: 7.196219E-002,7.196219E-002,7.196219E-002,7.196219E-002,7.196219E-002,7.196219E-002,7.196219E-002,7.196219E-002,7.196219E-002,7.196219E-002,
   **   ~~~   ** Supply-to-demand interface deck 1 mass flow rate check value iteration history trace: 7.196219E-002,7.196219E-002,7.196219E-002,7.196219E-002,7.196219E-002,7.196219E-002,7.196219E-002,7.196219E-002,7.196219E-002,7.196219E-002,
   **   ~~~   ** Air System Named = CENTRAL SYSTEM did not converge for energy
   **   ~~~   ** Check values should be zero. Most Recent values listed first.
   **   ~~~   ** Demand-to-Supply interface energy check value iteration history trace: 1771.900334,1771.900334,1771.900335,1771.900335,1771.900335,1771.900336,1771.900336,1771.900336,1771.900337,1771.900337,
   **   ~~~   ** Supply-to-demand interface deck 1 energy check value iteration history trace: 787.476239,787.476239,787.476239,787.476240,787.476240,787.476240,787.476240,787.476240,787.476240,787.476240,
   ** Warning ** SimHVAC: Maximum iterations (20) exceeded for all HVAC loops, at ANNUAL, 09/12 07:45 - 08:00
   **   ~~~   ** The solution for one or more of the Air Loop HVAC systems did not appear to converge
   **   ~~~   ** Air System Named = CENTRAL SYSTEM did not converge for mass flow rate
   **   ~~~   ** Check values should be zero. Most Recent values listed first.
   **   ~~~   ** Demand-to-Supply interface mass flow rate check value iteration history trace: 5.887443E-002,5.887443E-002,5.887443E-002,5.887443E-002,5.887443E-002,5.887443E-002,5.887443E-002,5.887443E-002,5.887443E-002,5.887443E-002,
   **   ~~~   ** Supply-to-demand interface deck 1 mass flow rate check value iteration history trace: 5.887443E-002,5.887443E-002,5.887443E-002,5.887443E-002,5.887443E-002,5.887443E-002,5.887443E-002,5.887443E-002,5.887443E-002,5.887443E-002,
   **   ~~~   ** Air System Named = CENTRAL SYSTEM did not converge for energy
   **   ~~~   ** Check values should be zero. Most Recent values listed first.
   **   ~~~   ** Demand-to-Supply interface energy check value iteration history trace: 1160.628410,1160.628410,1160.628410,1160.628410,1160.628410,1160.628410,1160.628410,1160.628410,1160.628410,1160.628410,
   **   ~~~   ** Supply-to-demand interface deck 1 energy check value iteration history trace: 2094.541747,2094.541747,2094.541747,2094.541746,2094.541746,2094.541746,2094.541746,2094.541746,2094.541746,2094.541746,
   ** Warning ** SimHVAC: Maximum iterations (20) exceeded for all HVAC loops, at ANNUAL, 09/12 11:56 - 12:00
   **   ~~~   ** The solution for one or more of the Air Loop HVAC systems did not appear to converge
   **   ~~~   ** Air System Named = CENTRAL SYSTEM did not converge for mass flow rate
   **   ~~~   ** Check values should be zero. Most Recent values listed first.
   **   ~~~   ** Demand-to-Supply interface mass flow rate check value iteration history trace: 4.011562E-002,4.011562E-002,4.011562E-002,4.011562E-002,4.011562E-002,4.011562E-002,4.011562E-002,4.011562E-002,4.011562E-002,4.011562E-002,
   **   ~~~   ** Supply-to-demand interface deck 1 mass flow rate check value iteration history trace: 4.011562E-002,4.011562E-002,4.011562E-002,4.011562E-002,4.011562E-002,4.011562E-002,4.011562E-002,4.011562E-002,4.011562E-002,4.011562E-002,
   **   ~~~   ** Air System Named = CENTRAL SYSTEM did not converge for energy
   **   ~~~   ** Check values should be zero. Most Recent values listed first.
   **   ~~~   ** Demand-to-Supply interface energy check value iteration history trace: 943.752754,943.752754,943.752754,943.752754,943.752754,943.752754,943.752754,943.752754,943.752754,943.752754,
   **   ~~~   ** Supply-to-demand interface deck 1 energy check value iteration history trace: 395.643307,395.643307,395.643307,395.643307,395.643307,395.643307,395.643307,395.643307,395.643307,395.643307,
   ** Warning ** SimHVAC: Maximum iterations (20) exceeded for all HVAC loops, at ANNUAL, 09/18 08:00 - 08:15
   **   ~~~   ** The solution for one or more of the Air Loop HVAC systems did not appear to converge
   **   ~~~   ** Air System Named = CENTRAL SYSTEM did not converge for mass flow rate
   **   ~~~   ** Check values should be zero. Most Recent values listed first.
   **   ~~~   ** Demand-to-Supply interface mass flow rate check value iteration history trace: 5.424933E-002,5.424933E-002,5.424933E-002,5.424933E-002,5.424933E-002,5.424933E-002,5.424933E-002,5.424933E-002,5.424933E-002,5.424933E-002,
   **   ~~~   ** Supply-to-demand interface deck 1 mass flow rate check value iteration history trace: 5.424933E-002,5.424933E-002,5.424933E-002,5.424933E-002,5.424933E-002,5.424933E-002,5.424933E-002,5.424933E-002,5.424933E-002,5.424933E-002,
   **   ~~~   ** Air System Named = CENTRAL SYSTEM did not converge for energy
   **   ~~~   ** Check values should be zero. Most Recent values listed first.
   **   ~~~   ** Demand-to-Supply interface energy check value iteration history trace: 1066.388869,1066.388869,1066.388869,1066.388869,1066.388869,1066.388869,1066.388869,1066.388869,1066.388869,1066.388869,
   **   ~~~   ** Supply-to-demand interface deck 1 energy check value iteration history trace: 1925.801068,1925.801068,1925.801068,1925.801068,1925.801068,1925.801068,1925.801068,1925.801068,1925.801068,1925.801068,
   ************* Simulation Error Summary *************
   ** Warning ** The following Report Variables were requested but not generated -- check.rdd file
   **   ~~~   ** Either the IDF did not contain these elements, the variable name is misspelled,
   **   ~~~   ** or the requested variable is an advanced output which requires Output : Diagnostics, DisplayAdvancedReportVariables;
   ************* Key=*, VarName=BASEBOARD TOTAL HEATING ENERGY, Frequency=
   ************* Key=*, VarName=WATER HEATER NATURALGAS ENERGY, Frequency=
   ************* Key=*, VarName=COOLING COIL TOTAL HEATING ENERGY, Frequency=
   ************* There are 34 unused schedules in input.
   ************* There are 388 unused week schedules in input.
   ************* There are 396 unused day schedules in input.
   ************* Use Output:Diagnostics,DisplayUnusedSchedules; to see them.
   *************
   ************* ===== Recurring Error Summary =====
   ************* The following recurring error messages occurred.
   *************
   *************  ** Warning ** "TOTAL HOT WATER LOAD" - Target water temperature should be less than or equal to the hot water temperature error continues...
   *************  **   ~~~   **   This error occurred 53311 total times;
   *************  **   ~~~   **   during Warmup 0 times;
   *************  **   ~~~   **   during Sizing 0 times.
   *************  **   ~~~   **   Max=6.399004  Min=1.138436E-004
   *************
   *************  ** Warning ** SimHVAC: Exceeding Maximum iterations for all HVAC loops, during ANNUAL continues
   *************  **   ~~~   **   This error occurred 6 total times;
   *************  **   ~~~   **   during Warmup 0 times;
   *************  **   ~~~   **   during Sizing 0 times.
   *************
   *************
   ************* ===== Final Error Summary =====
   ************* The following error categories occurred.  Consider correcting or noting.
   ************* Nominally Unused Constructions
   ************* ..The nominally unused constructions warning is provided to alert you to potential conditions that can cause
   ************* ..extra time during simulation. Each construction is calculated by the algorithm indicated in the HeatBalanceAlgorithm
   ************* ..object. You may remove the constructions indicated (when you use the DisplayExtraWarnings option).
   *************
   ************* EnergyPlus Warmup Error Summary. During Warmup: 0 Warning; 0 Severe Errors.
   ************* EnergyPlus Sizing Error Summary. During Sizing: 4 Warning; 0 Severe Errors.
   ************* EnergyPlus Completed Successfully-- 53349 Warning; 0 Severe Errors; Elapsed Time=00hr 01min 28.73sec
