Program Version,EnergyPlus, Version 22.2.0-c249759bad, YMD=2023.09.01 15:20,
   ************* Beginning Zone Sizing Calculations
   ** Warning ** ProcessScheduleInput: Schedule:Constant="ALWAYS ON DISCRETE", Schedule Type Limits Name="ONOFF" not found -- will not be validated
   ** Warning ** Foundation:Kiva="KIVA FOUNDATION", no Interior Horizontal Insulation Material Name defined
   **   ~~~   ** Interior Horizontal Insulation Depth will not be used.
   ** Warning ** CheckUsedConstructions: There are 15 nominally unused constructions in input.
   **   ~~~   ** Each Unused construction is shown.
   ************* Construction=INTERIOR FLOOR
   ************* Construction=INTERIOR WINDOW
   ************* Construction=EXTERIOR DOOR
   ************* Construction=INTERIOR DOOR
   ************* Construction=GABLE CONSTRUCTION
   ************* Construction=CRAWL_FLOOR
   ************* Construction=INSULATED PIPE
   ************* Construction=PLAIN PIPE
   ************* Construction=TDD PIPE
   ************* Construction=TDD DOME
   ************* Construction=TDD DIFFUSER
   ************* Construction=CRAWL WALL
   ************* Construction=CEILING-FLOOR-LAYER
   ************* Construction=SLAB CONSTRUCTION W FULL R10 INSULATION
   ************* Construction=SLAB CONSTRUCTION W FULL R5 INSULATION
   ** Warning ** GetDXCoils: Coil:Heating:DX:SingleSpeed="DX_HEATING_COIL" curve values
   **   ~~~   ** ... Defrost Energy Input Ratio Function of Temperature Curve Name = DEFROSTEIR output is not equal to 1.0 (+ or - 10%) at rated conditions.
   **   ~~~   ** ... Curve output at rated conditions = 0.152
   ************* Beginning System Sizing Calculations
   ************* Beginning Plant Sizing Calculations
   ** Warning ** SizeDXCoil Coil:Cooling:DX:SingleSpeed DX_COOLING_COIL
   **   ~~~   ** ...Gross Rated Total Cooling Capacity [W] will be limited by the maximum rated volume flow per rated total capacity ratio.
   **   ~~~   ** ...DX coil volume flow rate ( m3/s ) = 0.484204
   **   ~~~   ** ...Requested capacity ( W ) = 7831.959
   **   ~~~   ** ...Requested flow/capacity ratio ( m3/s/W ) = 6.182E-005
   **   ~~~   ** ...Maximum flow/capacity ratio ( m3/s/W ) = 6.041E-005
   **   ~~~   ** ...Adjusted capacity ( W ) = 8015.303
   ** Warning ** Coil:WaterHeating:AirToWaterHeatPump:Wrapped "HEAT PUMP WATER HEATER EVAPORATOR": Rated air volume flow rate per watt of rated total water heating capacity is out of range
   **   ~~~   ** Min Rated Vol Flow Per Watt=[4.027E-005], Rated Vol Flow Per Watt=[1.386E-004], Max Rated Vol Flow Per Watt=[8.056E-005]. See Input-Output Reference Manual for valid range.
   ** Warning ** Water heater = WATER HEATER TANK:  Recovery Efficiency and Energy Factor could not be calculated during the test for standard ratings
   **   ~~~   ** Setpoint was never recovered and/or heater never turned on
   ** Warning ** Check input. Pump nominal power or motor efficiency is set to 0, for pump=MAINS PRESSURE
   ** Warning ** Output:Meter: invalid Key Name="ELECTRIC_RANGE:INTERIOREQUIPMENT:ELECTRICITY" - not found.
   ** Warning ** Output:Meter: invalid Key Name="ELECTRIC_DRYER:INTERIOREQUIPMENT:ELECTRICITY" - not found.
   ** Warning ** Output:Meter: invalid Key Name="HEATRECOVERY:ELECTRICITY" - not found.
   ** Warning ** Output:Meter: invalid Key Name="HEATING:NATURALGAS" - not found.
   ** Warning ** Output:Meter: invalid Key Name="WATERSYSTEMS:NATURALGAS" - not found.
   ** Warning ** Output:Meter: invalid Key Name="PROPANE:FACILITY" - not found.
   ** Warning ** Output:Meter: invalid Key Name="HEATING:PROPANE" - not found.
   ************* Testing Individual Branch Integrity
   ************* All Branches passed integrity testing
   ************* Testing Individual Supply Air Path Integrity
   ************* All Supply Air Paths passed integrity testing
   ************* Testing Individual Return Air Path Integrity
   ************* All Return Air Paths passed integrity testing
   ************* No node connection errors were found.
   ************* Beginning Simulation
   ** Warning ** AirflowNetwork::Solver::validate_distribution: Heat pump water heater is simulated along with an AirflowNetwork but is not included in the AirflowNetwork.
   ** Warning ** CalcEquipmentFlowRates: "TOTAL HOT WATER LOAD" - Target water temperature is greater than the hot water temperature by (1.42 C)
   **   ~~~   **  Environment=EXTREME_WINTER, at Simulation time=01/29 06:00 - 06:15
   **   ~~~   ** ...target water temperature     = 53.33 C
   **   ~~~   ** ...hot water temperature        = 51.92 C
   **   ~~~   ** ...Target water temperature should be less than or equal to the hot water temperature. Verify temperature setpoints and schedules.
   ** Warning ** SimHVAC: Maximum iterations (20) exceeded for all HVAC loops, at ANNUAL, 01/04 16:00 - 16:15
   **   ~~~   ** The solution for one or more of the Air Loop HVAC systems did not appear to converge
   **   ~~~   ** Air System Named = CENTRAL SYSTEM did not converge for mass flow rate
   **   ~~~   ** Check values should be zero. Most Recent values listed first.
   **   ~~~   ** Demand-to-Supply interface mass flow rate check value iteration history trace: 8.527049E-002,8.527049E-002,8.527049E-002,8.527049E-002,8.527049E-002,8.527049E-002,8.527049E-002,8.527049E-002,8.527049E-002,8.527049E-002,
   **   ~~~   ** Supply-to-demand interface deck 1 mass flow rate check value iteration history trace: 8.527049E-002,8.527049E-002,8.527049E-002,8.527049E-002,8.527049E-002,8.527049E-002,8.527049E-002,8.527049E-002,8.527049E-002,8.527049E-002,
   **   ~~~   ** Air System Named = CENTRAL SYSTEM did not converge for energy
   **   ~~~   ** Check values should be zero. Most Recent values listed first.
   **   ~~~   ** Demand-to-Supply interface energy check value iteration history trace: 1689.739430,1689.739430,1689.739430,1689.739430,1689.739430,1689.739430,1689.739430,1689.739430,1689.739429,1689.739429,
   **   ~~~   ** Supply-to-demand interface deck 1 energy check value iteration history trace: 2831.537149,2831.537149,2831.537149,2831.537149,2831.537149,2831.537149,2831.537148,2831.537148,2831.537148,2831.537148,
   ** Warning ** SimHVAC: Maximum iterations (20) exceeded for all HVAC loops, at ANNUAL, 02/09 17:23 - 17:30
   **   ~~~   ** The solution for one or more of the Air Loop HVAC systems did not appear to converge
   **   ~~~   ** Air System Named = CENTRAL SYSTEM did not converge for mass flow rate
   **   ~~~   ** Check values should be zero. Most Recent values listed first.
   **   ~~~   ** Demand-to-Supply interface mass flow rate check value iteration history trace: 8.564034E-002,8.564034E-002,8.564034E-002,8.564034E-002,8.564034E-002,8.564034E-002,8.564034E-002,8.564034E-002,8.564034E-002,8.564034E-002,
   **   ~~~   ** Supply-to-demand interface deck 1 mass flow rate check value iteration history trace: 8.564034E-002,8.564034E-002,8.564034E-002,8.564034E-002,8.564034E-002,8.564034E-002,8.564034E-002,8.564034E-002,8.564034E-002,8.564034E-002,
   **   ~~~   ** Air System Named = CENTRAL SYSTEM did not converge for energy
   **   ~~~   ** Check values should be zero. Most Recent values listed first.
   **   ~~~   ** Demand-to-Supply interface energy check value iteration history trace: 1696.208414,1696.208413,1696.208413,1696.208412,1696.208412,1696.208411,1696.208410,1696.208410,1696.208409,1696.208409,
   **   ~~~   ** Supply-to-demand interface deck 1 energy check value iteration history trace: 2598.547389,2598.547388,2598.547387,2598.547386,2598.547385,2598.547385,2598.547384,2598.547383,2598.547382,2598.547381,
   **   ~~~   ** Node named ZONE INLET NODE shows oscillating temperatures across iterations with a repeated value of 30.196295
   **   ~~~   ** Node named ZONE INLET NODE temperature [C] iteration history trace (most recent first): 30.196295,30.196295,30.196295,30.196295,30.196294,30.196294,30.196294,30.196294,30.196293,30.196293,
   ** Warning ** SimHVAC: Maximum iterations (20) exceeded for all HVAC loops, at ANNUAL, 03/05 09:30 - 09:45
   **   ~~~   ** The solution for one or more of the Air Loop HVAC systems did not appear to converge
   **   ~~~   ** Air System Named = CENTRAL SYSTEM did not converge for mass flow rate
   **   ~~~   ** Check values should be zero. Most Recent values listed first.
   **   ~~~   ** Demand-to-Supply interface mass flow rate check value iteration history trace: 4.578965E-002,4.578965E-002,4.578965E-002,4.578965E-002,4.578965E-002,4.578965E-002,4.578965E-002,4.578965E-002,4.578965E-002,4.578965E-002,
   **   ~~~   ** Supply-to-demand interface deck 1 mass flow rate check value iteration history trace: 4.578965E-002,4.578965E-002,4.578965E-002,4.578965E-002,4.578965E-002,4.578965E-002,4.578965E-002,4.578965E-002,4.578965E-002,4.578965E-002,
   **   ~~~   ** Air System Named = CENTRAL SYSTEM did not converge for energy
   **   ~~~   ** Check values should be zero. Most Recent values listed first.
   **   ~~~   ** Demand-to-Supply interface energy check value iteration history trace: 1078.820070,1078.820070,1078.820070,1078.820070,1078.820070,1078.820070,1078.820070,1078.820070,1078.820071,1078.820071,
   **   ~~~   ** Supply-to-demand interface deck 1 energy check value iteration history trace: 610.591095,610.591095,610.591095,610.591095,610.591095,610.591095,610.591095,610.591095,610.591095,610.591095,
   ** Warning ** SimHVAC: Maximum iterations (20) exceeded for all HVAC loops, at ANNUAL, 03/19 10:55 - 10:57
   **   ~~~   ** The solution for one or more of the Air Loop HVAC systems did not appear to converge
   **   ~~~   ** Air System Named = CENTRAL SYSTEM did not converge for mass flow rate
   **   ~~~   ** Check values should be zero. Most Recent values listed first.
   **   ~~~   ** Demand-to-Supply interface mass flow rate check value iteration history trace: 0.254036,0.254036,0.254036,0.254036,0.254036,0.254036,0.254036,0.254036,0.254036,0.254036,
   **   ~~~   ** Supply-to-demand interface deck 1 mass flow rate check value iteration history trace: 0.254036,0.254036,0.254036,0.254036,0.254036,0.254036,0.254036,0.254036,0.254036,0.254036,
   **   ~~~   ** Air System Named = CENTRAL SYSTEM did not converge for energy
   **   ~~~   ** Check values should be zero. Most Recent values listed first.
   **   ~~~   ** Demand-to-Supply interface energy check value iteration history trace: 6009.700458,6009.700460,6009.700462,6009.700463,6009.700465,6009.700467,6009.700468,6009.700470,6009.700472,6009.700473,
   **   ~~~   ** Supply-to-demand interface deck 1 energy check value iteration history trace: 3279.649423,3279.649424,3279.649425,3279.649426,3279.649427,3279.649428,3279.649429,3279.649430,3279.649431,3279.649432,
   ** Warning ** SimHVAC: Maximum iterations (20) exceeded for all HVAC loops, at ANNUAL, 03/28 08:36 - 08:39
   **   ~~~   ** The solution for one or more of the Air Loop HVAC systems did not appear to converge
   **   ~~~   ** Air System Named = CENTRAL SYSTEM did not converge for mass flow rate
   **   ~~~   ** Check values should be zero. Most Recent values listed first.
   **   ~~~   ** Demand-to-Supply interface mass flow rate check value iteration history trace: 6.516152E-002,6.516152E-002,6.516152E-002,6.516152E-002,6.516152E-002,6.516152E-002,6.516152E-002,6.516152E-002,6.516152E-002,6.516152E-002,
   **   ~~~   ** Supply-to-demand interface deck 1 mass flow rate check value iteration history trace: 6.516152E-002,6.516152E-002,6.516152E-002,6.516152E-002,6.516152E-002,6.516152E-002,6.516152E-002,6.516152E-002,6.516152E-002,6.516152E-002,
   **   ~~~   ** Air System Named = CENTRAL SYSTEM did not converge for energy
   **   ~~~   ** Check values should be zero. Most Recent values listed first.
   **   ~~~   ** Demand-to-Supply interface energy check value iteration history trace: 1282.142610,1282.142610,1282.142610,1282.142610,1282.142610,1282.142610,1282.142610,1282.142609,1282.142609,1282.142609,
   **   ~~~   ** Supply-to-demand interface deck 1 energy check value iteration history trace: 2275.827201,2275.827201,2275.827201,2275.827200,2275.827200,2275.827200,2275.827200,2275.827200,2275.827200,2275.827200,
   ** Warning ** SimHVAC: Maximum iterations (20) exceeded for all HVAC loops, at ANNUAL, 11/14 08:15 - 08:30
   **   ~~~   ** The solution for one or more of the Air Loop HVAC systems did not appear to converge
   **   ~~~   ** Air System Named = CENTRAL SYSTEM did not converge for mass flow rate
   **   ~~~   ** Check values should be zero. Most Recent values listed first.
   **   ~~~   ** Demand-to-Supply interface mass flow rate check value iteration history trace: 7.320450E-002,7.320450E-002,7.320450E-002,7.320450E-002,7.320450E-002,7.320450E-002,7.320450E-002,7.320450E-002,7.320450E-002,7.320450E-002,
   **   ~~~   ** Supply-to-demand interface deck 1 mass flow rate check value iteration history trace: 7.320450E-002,7.320450E-002,7.320450E-002,7.320450E-002,7.320450E-002,7.320450E-002,7.320450E-002,7.320450E-002,7.320450E-002,7.320450E-002,
   **   ~~~   ** Air System Named = CENTRAL SYSTEM did not converge for energy
   **   ~~~   ** Check values should be zero. Most Recent values listed first.
   **   ~~~   ** Demand-to-Supply interface energy check value iteration history trace: 1435.601141,1435.601141,1435.601141,1435.601141,1435.601140,1435.601140,1435.601140,1435.601140,1435.601140,1435.601140,
   **   ~~~   ** Supply-to-demand interface deck 1 energy check value iteration history trace: 2518.895127,2518.895127,2518.895127,2518.895127,2518.895127,2518.895127,2518.895127,2518.895126,2518.895126,2518.895126,
   ** Warning ** SimHVAC: Maximum iterations (20) exceeded for all HVAC loops, at ANNUAL, 12/10 10:45 - 11:00
   **   ~~~   ** The solution for one or more of the Air Loop HVAC systems did not appear to converge
   **   ~~~   ** Air System Named = CENTRAL SYSTEM did not converge for mass flow rate
   **   ~~~   ** Check values should be zero. Most Recent values listed first.
   **   ~~~   ** Demand-to-Supply interface mass flow rate check value iteration history trace: 6.980956E-002,6.980956E-002,6.980956E-002,6.980956E-002,6.980956E-002,6.980956E-002,6.980956E-002,6.980956E-002,6.980956E-002,6.980956E-002,
   **   ~~~   ** Supply-to-demand interface deck 1 mass flow rate check value iteration history trace: 6.980956E-002,6.980956E-002,6.980956E-002,6.980956E-002,6.980956E-002,6.980956E-002,6.980956E-002,6.980956E-002,6.980956E-002,6.980956E-002,
   **   ~~~   ** Air System Named = CENTRAL SYSTEM did not converge for energy
   **   ~~~   ** Check values should be zero. Most Recent values listed first.
   **   ~~~   ** Demand-to-Supply interface energy check value iteration history trace: 1378.651739,1378.651739,1378.651739,1378.651739,1378.651739,1378.651739,1378.651739,1378.651739,1378.651739,1378.651739,
   **   ~~~   ** Supply-to-demand interface deck 1 energy check value iteration history trace: 2420.845707,2420.845707,2420.845707,2420.845707,2420.845707,2420.845707,2420.845707,2420.845707,2420.845707,2420.845706,
   ** Warning ** SimHVAC: Maximum iterations (20) exceeded for all HVAC loops, at ANNUAL, 12/19 18:53 - 19:00
   **   ~~~   ** The solution for one or more of the Air Loop HVAC systems did not appear to converge
   **   ~~~   ** Air System Named = CENTRAL SYSTEM did not converge for mass flow rate
   **   ~~~   ** Check values should be zero. Most Recent values listed first.
   **   ~~~   ** Demand-to-Supply interface mass flow rate check value iteration history trace: 0.219436,0.219436,0.219436,0.219436,0.219436,0.219436,0.219436,0.219436,0.219436,0.219436,
   **   ~~~   ** Supply-to-demand interface deck 1 mass flow rate check value iteration history trace: 0.219436,0.219436,0.219436,0.219436,0.219436,0.219436,0.219436,0.219436,0.219436,0.219436,
   **   ~~~   ** Air System Named = CENTRAL SYSTEM did not converge for energy
   **   ~~~   ** Check values should be zero. Most Recent values listed first.
   **   ~~~   ** Demand-to-Supply interface energy check value iteration history trace: 5222.715652,5222.715653,5222.715654,5222.715656,5222.715657,5222.715658,5222.715660,5222.715661,5222.715662,5222.715664,
   **   ~~~   ** Supply-to-demand interface deck 1 energy check value iteration history trace: 3060.789138,3060.789139,3060.789140,3060.789140,3060.789141,3060.789142,3060.789143,3060.789144,3060.789144,3060.789145,
   ** Warning ** SimHVAC: Maximum iterations (20) exceeded for all HVAC loops, at ANNUAL, 12/19 20:35 - 20:40
   **   ~~~   ** The solution for one or more of the Air Loop HVAC systems did not appear to converge
   **   ~~~   ** Air System Named = CENTRAL SYSTEM did not converge for mass flow rate
   **   ~~~   ** Check values should be zero. Most Recent values listed first.
   **   ~~~   ** Demand-to-Supply interface mass flow rate check value iteration history trace: 0.274477,0.274477,0.274477,0.274477,0.274477,0.274477,0.274477,0.274477,0.274477,0.274477,
   **   ~~~   ** Supply-to-demand interface deck 1 mass flow rate check value iteration history trace: 0.274477,0.274477,0.274477,0.274477,0.274477,0.274477,0.274477,0.274477,0.274477,0.274477,
   **   ~~~   ** Air System Named = CENTRAL SYSTEM did not converge for energy
   **   ~~~   ** Check values should be zero. Most Recent values listed first.
   **   ~~~   ** Demand-to-Supply interface energy check value iteration history trace: 6544.154245,6544.154247,6544.154249,6544.154251,6544.154253,6544.154255,6544.154257,6544.154259,6544.154261,6544.154263,
   **   ~~~   ** Supply-to-demand interface deck 1 energy check value iteration history trace: 3698.819695,3698.819696,3698.819698,3698.819699,3698.819700,3698.819701,3698.819702,3698.819703,3698.819704,3698.819705,
   ** Warning ** SimHVAC: Maximum iterations (20) exceeded for all HVAC loops, at ANNUAL, 12/21 07:45 - 08:00
   **   ~~~   ** The solution for one or more of the Air Loop HVAC systems did not appear to converge
   **   ~~~   ** Air System Named = CENTRAL SYSTEM did not converge for mass flow rate
   **   ~~~   ** Check values should be zero. Most Recent values listed first.
   **   ~~~   ** Demand-to-Supply interface mass flow rate check value iteration history trace: 6.423143E-002,6.423143E-002,6.423143E-002,6.423143E-002,6.423143E-002,6.423143E-002,6.423143E-002,6.423143E-002,6.423143E-002,6.423143E-002,
   **   ~~~   ** Supply-to-demand interface deck 1 mass flow rate check value iteration history trace: 6.423143E-002,6.423143E-002,6.423143E-002,6.423143E-002,6.423143E-002,6.423143E-002,6.423143E-002,6.423143E-002,6.423143E-002,6.423143E-002,
   **   ~~~   ** Air System Named = CENTRAL SYSTEM did not converge for energy
   **   ~~~   ** Check values should be zero. Most Recent values listed first.
   **   ~~~   ** Demand-to-Supply interface energy check value iteration history trace: 1272.736836,1272.736836,1272.736835,1272.736835,1272.736835,1272.736835,1272.736835,1272.736835,1272.736835,1272.736835,
   **   ~~~   ** Supply-to-demand interface deck 1 energy check value iteration history trace: 2233.526662,2233.526661,2233.526661,2233.526661,2233.526661,2233.526661,2233.526661,2233.526661,2233.526661,2233.526661,
   ************* Simulation Error Summary *************
   ** Warning ** The following Report Variables were requested but not generated -- check.rdd file
   **   ~~~   ** Either the IDF did not contain these elements, the variable name is misspelled,
   **   ~~~   ** or the requested variable is an advanced output which requires Output : Diagnostics, DisplayAdvancedReportVariables;
   ************* Key=*, VarName=BASEBOARD TOTAL HEATING ENERGY, Frequency=
   ************* Key=*, VarName=WATER HEATER NATURALGAS ENERGY, Frequency=
   ************* Key=*, VarName=COOLING COIL TOTAL HEATING ENERGY, Frequency=
   ************* There are 34 unused schedules in input.
   ************* There are 388 unused week schedules in input.
   ************* There are 396 unused day schedules in input.
   ************* Use Output:Diagnostics,DisplayUnusedSchedules; to see them.
   *************
   ************* ===== Recurring Error Summary =====
   ************* The following recurring error messages occurred.
   *************
   *************  ** Warning ** "TOTAL HOT WATER LOAD" - Target water temperature should be less than or equal to the hot water temperature error continues...
   *************  **   ~~~   **   This error occurred 115381 total times;
   *************  **   ~~~   **   during Warmup 0 times;
   *************  **   ~~~   **   during Sizing 0 times.
   *************  **   ~~~   **   Max=8.215044  Min=1.900106E-004
   *************
   *************
   ************* ===== Final Error Summary =====
   ************* The following error categories occurred.  Consider correcting or noting.
   ************* Nominally Unused Constructions
   ************* ..The nominally unused constructions warning is provided to alert you to potential conditions that can cause
   ************* ..extra time during simulation. Each construction is calculated by the algorithm indicated in the HeatBalanceAlgorithm
   ************* ..object. You may remove the constructions indicated (when you use the DisplayExtraWarnings option).
   *************
   ************* EnergyPlus Warmup Error Summary. During Warmup: 1 Warning; 0 Severe Errors.
   ************* EnergyPlus Sizing Error Summary. During Sizing: 4 Warning; 0 Severe Errors.
   ************* EnergyPlus Completed Successfully-- 115409 Warning; 0 Severe Errors; Elapsed Time=00hr 06min  8.41sec
