Program Version,EnergyPlus, Version 22.2.0-c249759bad, YMD=2023.09.01 19:50,
   ************* Beginning Zone Sizing Calculations
   ** Warning ** ProcessScheduleInput: Schedule:Constant="ALWAYS ON DISCRETE", Schedule Type Limits Name="ONOFF" not found -- will not be validated
   ** Warning ** Foundation:Kiva="KIVA FOUNDATION", no Interior Horizontal Insulation Material Name defined
   **   ~~~   ** Interior Horizontal Insulation Depth will not be used.
   ** Warning ** CheckUsedConstructions: There are 15 nominally unused constructions in input.
   **   ~~~   ** Each Unused construction is shown.
   ************* Construction=INTERIOR FLOOR
   ************* Construction=INTERIOR WINDOW
   ************* Construction=EXTERIOR DOOR
   ************* Construction=INTERIOR DOOR
   ************* Construction=GABLE CONSTRUCTION
   ************* Construction=CRAWL_FLOOR
   ************* Construction=INSULATED PIPE
   ************* Construction=PLAIN PIPE
   ************* Construction=TDD PIPE
   ************* Construction=TDD DOME
   ************* Construction=TDD DIFFUSER
   ************* Construction=CRAWL WALL
   ************* Construction=CEILING-FLOOR-LAYER
   ************* Construction=SLAB CONSTRUCTION W FULL R10 INSULATION
   ************* Construction=SLAB CONSTRUCTION W FULL R5 INSULATION
   ** Warning ** GetDXCoils: Coil:Heating:DX:SingleSpeed="DX_HEATING_COIL" curve values
   **   ~~~   ** ... Defrost Energy Input Ratio Function of Temperature Curve Name = DEFROSTEIR output is not equal to 1.0 (+ or - 10%) at rated conditions.
   **   ~~~   ** ... Curve output at rated conditions = 0.152
   ************* Beginning System Sizing Calculations
   ************* Beginning Plant Sizing Calculations
   ** Warning ** Coil:WaterHeating:AirToWaterHeatPump:Wrapped "HEAT PUMP WATER HEATER EVAPORATOR": Rated air volume flow rate per watt of rated total water heating capacity is out of range
   **   ~~~   ** Min Rated Vol Flow Per Watt=[4.027E-005], Rated Vol Flow Per Watt=[1.510E-004], Max Rated Vol Flow Per Watt=[8.056E-005]. See Input-Output Reference Manual for valid range.
   ************* SizeFan: : Potential issue with equipment sizing for Fan:OnOff HEAT PUMP WATER HEATER FAN
   **   ~~~   ** User-Specified Maximum Flow Rate [m3/s] = 0.22653
   **   ~~~   ** differs from Design Size Maximum Flow Rate [m3/s] = 7.55250E-002
   **   ~~~   ** This may, or may not, indicate mismatched component sizes.
   **   ~~~   ** Verify that the value entered is intended and is consistent with other components.
   ** Warning ** Water heater = WATER HEATER TANK:  Recovery Efficiency and Energy Factor could not be calculated during the test for standard ratings
   **   ~~~   ** Setpoint was never recovered and/or heater never turned on
   ** Warning ** Check input. Pump nominal power or motor efficiency is set to 0, for pump=MAINS PRESSURE
   ** Warning ** Output:Meter: invalid Key Name="ELECTRIC_RANGE:INTERIOREQUIPMENT:ELECTRICITY" - not found.
   ** Warning ** Output:Meter: invalid Key Name="ELECTRIC_DRYER:INTERIOREQUIPMENT:ELECTRICITY" - not found.
   ** Warning ** Output:Meter: invalid Key Name="HEATRECOVERY:ELECTRICITY" - not found.
   ** Warning ** Output:Meter: invalid Key Name="HEATING:NATURALGAS" - not found.
   ** Warning ** Output:Meter: invalid Key Name="WATERSYSTEMS:NATURALGAS" - not found.
   ** Warning ** Output:Meter: invalid Key Name="PROPANE:FACILITY" - not found.
   ** Warning ** Output:Meter: invalid Key Name="HEATING:PROPANE" - not found.
   ************* Testing Individual Branch Integrity
   ************* All Branches passed integrity testing
   ************* Testing Individual Supply Air Path Integrity
   ************* All Supply Air Paths passed integrity testing
   ************* Testing Individual Return Air Path Integrity
   ************* All Return Air Paths passed integrity testing
   ************* No node connection errors were found.
   ************* Beginning Simulation
   ** Warning ** AirflowNetwork::Solver::validate_distribution: Heat pump water heater is simulated along with an AirflowNetwork but is not included in the AirflowNetwork.
   ** Warning ** CalcEquipmentFlowRates: "TOTAL HOT WATER LOAD" - Target water temperature is greater than the hot water temperature by (4.45 C)
   **   ~~~   **  Environment=EXTREME_WINTER, at Simulation time=01/20 06:00 - 06:15
   **   ~~~   ** ...target water temperature     = 53.33 C
   **   ~~~   ** ...hot water temperature        = 48.88 C
   **   ~~~   ** ...Target water temperature should be less than or equal to the hot water temperature. Verify temperature setpoints and schedules.
   ** Warning ** SimHVAC: Maximum iterations (20) exceeded for all HVAC loops, at ANNUAL, 01/27 16:45 - 17:00
   **   ~~~   ** The solution for one or more of the Air Loop HVAC systems did not appear to converge
   **   ~~~   ** Air System Named = CENTRAL SYSTEM did not converge for mass flow rate
   **   ~~~   ** Check values should be zero. Most Recent values listed first.
   **   ~~~   ** Demand-to-Supply interface mass flow rate check value iteration history trace: 7.831623E-002,7.831623E-002,7.831623E-002,7.831623E-002,7.831623E-002,7.831623E-002,7.831623E-002,7.831623E-002,7.831623E-002,7.831623E-002,
   **   ~~~   ** Supply-to-demand interface deck 1 mass flow rate check value iteration history trace: 7.831623E-002,7.831623E-002,7.831623E-002,7.831623E-002,7.831623E-002,7.831623E-002,7.831623E-002,7.831623E-002,7.831623E-002,7.831623E-002,
   **   ~~~   ** Air System Named = CENTRAL SYSTEM did not converge for energy
   **   ~~~   ** Check values should be zero. Most Recent values listed first.
   **   ~~~   ** Demand-to-Supply interface energy check value iteration history trace: 1544.789732,1544.789732,1544.789732,1544.789732,1544.789732,1544.789731,1544.789731,1544.789731,1544.789731,1544.789731,
   **   ~~~   ** Supply-to-demand interface deck 1 energy check value iteration history trace: 2280.258181,2280.258181,2280.258181,2280.258181,2280.258181,2280.258180,2280.258180,2280.258180,2280.258180,2280.258180,
   ** Warning ** SimHVAC: Maximum iterations (20) exceeded for all HVAC loops, at ANNUAL, 02/28 20:00 - 20:15
   **   ~~~   ** The solution for one or more of the Air Loop HVAC systems did not appear to converge
   **   ~~~   ** Air System Named = CENTRAL SYSTEM did not converge for mass flow rate
   **   ~~~   ** Check values should be zero. Most Recent values listed first.
   **   ~~~   ** Demand-to-Supply interface mass flow rate check value iteration history trace: 3.035338E-002,3.035338E-002,3.035338E-002,3.035338E-002,3.035338E-002,3.035338E-002,3.035338E-002,3.035338E-002,3.035338E-002,3.035338E-002,
   **   ~~~   ** Supply-to-demand interface deck 1 mass flow rate check value iteration history trace: 3.035338E-002,3.035338E-002,3.035338E-002,3.035338E-002,3.035338E-002,3.035338E-002,3.035338E-002,3.035338E-002,3.035338E-002,3.035338E-002,
   **   ~~~   ** Air System Named = CENTRAL SYSTEM did not converge for energy
   **   ~~~   ** Check values should be zero. Most Recent values listed first.
   **   ~~~   ** Demand-to-Supply interface energy check value iteration history trace: 601.273333,601.273333,601.273333,601.273333,601.273333,601.273333,601.273333,601.273333,601.273333,601.273333,
   **   ~~~   ** Supply-to-demand interface deck 1 energy check value iteration history trace: 912.971048,912.971048,912.971048,912.971048,912.971048,912.971048,912.971048,912.971048,912.971048,912.971048,
   ** Warning ** SimHVAC: Maximum iterations (20) exceeded for all HVAC loops, at ANNUAL, 03/10 11:45 - 11:52
   **   ~~~   ** The solution for one or more of the Air Loop HVAC systems did not appear to converge
   **   ~~~   ** Air System Named = CENTRAL SYSTEM did not converge for mass flow rate
   **   ~~~   ** Check values should be zero. Most Recent values listed first.
   **   ~~~   ** Demand-to-Supply interface mass flow rate check value iteration history trace: 4.663524E-002,4.663524E-002,4.663524E-002,4.663524E-002,4.663524E-002,4.663524E-002,4.663524E-002,4.663524E-002,4.663524E-002,4.663524E-002,
   **   ~~~   ** Supply-to-demand interface deck 1 mass flow rate check value iteration history trace: 4.663524E-002,4.663524E-002,4.663524E-002,4.663524E-002,4.663524E-002,4.663524E-002,4.663524E-002,4.663524E-002,4.663524E-002,4.663524E-002,
   **   ~~~   ** Air System Named = CENTRAL SYSTEM did not converge for energy
   **   ~~~   ** Check values should be zero. Most Recent values listed first.
   **   ~~~   ** Demand-to-Supply interface energy check value iteration history trace: 923.681537,923.681537,923.681537,923.681537,923.681537,923.681537,923.681537,923.681537,923.681537,923.681537,
   **   ~~~   ** Supply-to-demand interface deck 1 energy check value iteration history trace: 1741.151251,1741.151251,1741.151251,1741.151251,1741.151251,1741.151251,1741.151251,1741.151251,1741.151251,1741.151251,
   ** Warning ** SimHVAC: Maximum iterations (20) exceeded for all HVAC loops, at ANNUAL, 03/14 04:00 - 04:08
   **   ~~~   ** The solution for one or more of the Air Loop HVAC systems did not appear to converge
   **   ~~~   ** Air System Named = CENTRAL SYSTEM did not converge for mass flow rate
   **   ~~~   ** Check values should be zero. Most Recent values listed first.
   **   ~~~   ** Demand-to-Supply interface mass flow rate check value iteration history trace: 2.933666E-002,2.933666E-002,2.933666E-002,2.933666E-002,2.933666E-002,2.933666E-002,2.933666E-002,2.933666E-002,2.933666E-002,2.933666E-002,
   **   ~~~   ** Supply-to-demand interface deck 1 mass flow rate check value iteration history trace: 2.933666E-002,2.933666E-002,2.933666E-002,2.933666E-002,2.933666E-002,2.933666E-002,2.933666E-002,2.933666E-002,2.933666E-002,2.933666E-002,
   **   ~~~   ** Air System Named = CENTRAL SYSTEM did not converge for energy
   **   ~~~   ** Check values should be zero. Most Recent values listed first.
   **   ~~~   ** Demand-to-Supply interface energy check value iteration history trace: 547.487947,547.487947,547.487947,547.487947,547.487947,547.487947,547.487947,547.487947,547.487947,547.487947,
   **   ~~~   ** Supply-to-demand interface deck 1 energy check value iteration history trace: 1013.068525,1013.068525,1013.068525,1013.068525,1013.068525,1013.068525,1013.068525,1013.068525,1013.068525,1013.068525,
   ** Warning ** SimHVAC: Maximum iterations (20) exceeded for all HVAC loops, at ANNUAL, 03/27 09:30 - 09:33
   **   ~~~   ** The solution for one or more of the Air Loop HVAC systems did not appear to converge
   **   ~~~   ** Air System Named = CENTRAL SYSTEM did not converge for mass flow rate
   **   ~~~   ** Check values should be zero. Most Recent values listed first.
   **   ~~~   ** Demand-to-Supply interface mass flow rate check value iteration history trace: 7.373310E-002,7.373310E-002,7.373310E-002,7.373310E-002,7.373310E-002,7.373310E-002,7.373310E-002,7.373310E-002,7.373310E-002,7.373310E-002,
   **   ~~~   ** Supply-to-demand interface deck 1 mass flow rate check value iteration history trace: 7.373310E-002,7.373310E-002,7.373310E-002,7.373310E-002,7.373310E-002,7.373310E-002,7.373310E-002,7.373310E-002,7.373310E-002,7.373310E-002,
   **   ~~~   ** Air System Named = CENTRAL SYSTEM did not converge for energy
   **   ~~~   ** Check values should be zero. Most Recent values listed first.
   **   ~~~   ** Demand-to-Supply interface energy check value iteration history trace: 1461.140915,1461.140914,1461.140914,1461.140914,1461.140914,1461.140914,1461.140914,1461.140914,1461.140914,1461.140914,
   **   ~~~   ** Supply-to-demand interface deck 1 energy check value iteration history trace: 2513.786550,2513.786550,2513.786549,2513.786549,2513.786549,2513.786549,2513.786549,2513.786549,2513.786549,2513.786549,
   ** Warning ** SimHVAC: Maximum iterations (20) exceeded for all HVAC loops, at ANNUAL, 04/08 09:41 - 09:45
   **   ~~~   ** The solution for one or more of the Air Loop HVAC systems did not appear to converge
   **   ~~~   ** Air System Named = CENTRAL SYSTEM did not converge for mass flow rate
   **   ~~~   ** Check values should be zero. Most Recent values listed first.
   **   ~~~   ** Demand-to-Supply interface mass flow rate check value iteration history trace: 7.159489E-002,7.159489E-002,7.159489E-002,7.159489E-002,7.159489E-002,7.159489E-002,7.159489E-002,7.159489E-002,7.159489E-002,7.159489E-002,
   **   ~~~   ** Supply-to-demand interface deck 1 mass flow rate check value iteration history trace: 7.159489E-002,7.159489E-002,7.159489E-002,7.159489E-002,7.159489E-002,7.159489E-002,7.159489E-002,7.159489E-002,7.159489E-002,7.159489E-002,
   **   ~~~   ** Air System Named = CENTRAL SYSTEM did not converge for energy
   **   ~~~   ** Check values should be zero. Most Recent values listed first.
   **   ~~~   ** Demand-to-Supply interface energy check value iteration history trace: 1413.761266,1413.761266,1413.761266,1413.761266,1413.761266,1413.761266,1413.761266,1413.761265,1413.761265,1413.761265,
   **   ~~~   ** Supply-to-demand interface deck 1 energy check value iteration history trace: 2496.861632,2496.861632,2496.861632,2496.861632,2496.861632,2496.861631,2496.861631,2496.861631,2496.861631,2496.861631,
   ** Warning ** SimHVAC: Maximum iterations (20) exceeded for all HVAC loops, at ANNUAL, 04/13 09:00 - 09:04
   **   ~~~   ** The solution for one or more of the Air Loop HVAC systems did not appear to converge
   **   ~~~   ** Air System Named = CENTRAL SYSTEM did not converge for mass flow rate
   **   ~~~   ** Check values should be zero. Most Recent values listed first.
   **   ~~~   ** Demand-to-Supply interface mass flow rate check value iteration history trace: 6.419785E-002,6.419785E-002,6.419785E-002,6.419785E-002,6.419785E-002,6.419785E-002,6.419785E-002,6.419785E-002,6.419785E-002,6.419785E-002,
   **   ~~~   ** Supply-to-demand interface deck 1 mass flow rate check value iteration history trace: 6.419785E-002,6.419785E-002,6.419785E-002,6.419785E-002,6.419785E-002,6.419785E-002,6.419785E-002,6.419785E-002,6.419785E-002,6.419785E-002,
   **   ~~~   ** Air System Named = CENTRAL SYSTEM did not converge for energy
   **   ~~~   ** Check values should be zero. Most Recent values listed first.
   **   ~~~   ** Demand-to-Supply interface energy check value iteration history trace: 1272.171064,1272.171064,1272.171064,1272.171064,1272.171064,1272.171064,1272.171064,1272.171064,1272.171064,1272.171064,
   **   ~~~   ** Supply-to-demand interface deck 1 energy check value iteration history trace: 2231.714191,2231.714191,2231.714191,2231.714190,2231.714190,2231.714190,2231.714190,2231.714190,2231.714190,2231.714190,
   ** Warning ** SimHVAC: Maximum iterations (20) exceeded for all HVAC loops, at ANNUAL, 04/27 09:00 - 09:15
   **   ~~~   ** The solution for one or more of the Air Loop HVAC systems did not appear to converge
   **   ~~~   ** Air System Named = CENTRAL SYSTEM did not converge for mass flow rate
   **   ~~~   ** Check values should be zero. Most Recent values listed first.
   **   ~~~   ** Demand-to-Supply interface mass flow rate check value iteration history trace: 6.034559E-002,6.034559E-002,6.034559E-002,6.034559E-002,6.034559E-002,6.034559E-002,6.034559E-002,6.034559E-002,6.034559E-002,6.034559E-002,
   **   ~~~   ** Supply-to-demand interface deck 1 mass flow rate check value iteration history trace: 6.034559E-002,6.034559E-002,6.034559E-002,6.034559E-002,6.034559E-002,6.034559E-002,6.034559E-002,6.034559E-002,6.034559E-002,6.034559E-002,
   **   ~~~   ** Air System Named = CENTRAL SYSTEM did not converge for energy
   **   ~~~   ** Check values should be zero. Most Recent values listed first.
   **   ~~~   ** Demand-to-Supply interface energy check value iteration history trace: 1195.863374,1195.863374,1195.863374,1195.863374,1195.863374,1195.863374,1195.863374,1195.863374,1195.863373,1195.863373,
   **   ~~~   ** Supply-to-demand interface deck 1 energy check value iteration history trace: 2140.007537,2140.007537,2140.007537,2140.007537,2140.007537,2140.007537,2140.007537,2140.007536,2140.007536,2140.007536,
   ** Warning ** SimHVAC: Maximum iterations (20) exceeded for all HVAC loops, at ANNUAL, 05/03 07:56 - 08:00
   **   ~~~   ** The solution for one or more of the Air Loop HVAC systems did not appear to converge
   **   ~~~   ** Air System Named = CENTRAL SYSTEM did not converge for mass flow rate
   **   ~~~   ** Check values should be zero. Most Recent values listed first.
   **   ~~~   ** Demand-to-Supply interface mass flow rate check value iteration history trace: 6.675352E-002,6.675352E-002,6.675352E-002,6.675352E-002,6.675352E-002,6.675352E-002,6.675352E-002,6.675352E-002,6.675352E-002,6.675352E-002,
   **   ~~~   ** Supply-to-demand interface deck 1 mass flow rate check value iteration history trace: 6.675352E-002,6.675352E-002,6.675352E-002,6.675352E-002,6.675352E-002,6.675352E-002,6.675352E-002,6.675352E-002,6.675352E-002,6.675352E-002,
   **   ~~~   ** Air System Named = CENTRAL SYSTEM did not converge for energy
   **   ~~~   ** Check values should be zero. Most Recent values listed first.
   **   ~~~   ** Demand-to-Supply interface energy check value iteration history trace: 1320.856648,1320.856648,1320.856648,1320.856648,1320.856648,1320.856648,1320.856648,1320.856648,1320.856647,1320.856647,
   **   ~~~   ** Supply-to-demand interface deck 1 energy check value iteration history trace: 2321.951462,2321.951462,2321.951462,2321.951462,2321.951462,2321.951462,2321.951461,2321.951461,2321.951461,2321.951461,
   ** Warning ** SimHVAC: Maximum iterations (20) exceeded for all HVAC loops, at ANNUAL, 10/08 11:04 - 11:08
   **   ~~~   ** The solution for one or more of the Air Loop HVAC systems did not appear to converge
   **   ~~~   ** Air System Named = CENTRAL SYSTEM did not converge for mass flow rate
   **   ~~~   ** Check values should be zero. Most Recent values listed first.
   **   ~~~   ** Demand-to-Supply interface mass flow rate check value iteration history trace: 2.251366E-002,2.251366E-002,2.251366E-002,2.251366E-002,2.251366E-002,2.251366E-002,2.251366E-002,2.251366E-002,2.251366E-002,2.251366E-002,
   **   ~~~   ** Supply-to-demand interface deck 1 mass flow rate check value iteration history trace: 2.251366E-002,2.251366E-002,2.251366E-002,2.251366E-002,2.251366E-002,2.251366E-002,2.251366E-002,2.251366E-002,2.251366E-002,2.251366E-002,
   **   ~~~   ** Air System Named = CENTRAL SYSTEM did not converge for energy
   **   ~~~   ** Check values should be zero. Most Recent values listed first.
   **   ~~~   ** Demand-to-Supply interface energy check value iteration history trace: 527.737447,527.737447,527.737447,527.737448,527.737448,527.737448,527.737448,527.737448,527.737448,527.737448,
   **   ~~~   ** Supply-to-demand interface deck 1 energy check value iteration history trace: 234.975942,234.975942,234.975942,234.975942,234.975942,234.975942,234.975942,234.975942,234.975942,234.975942,
   ** Warning ** SimHVAC: Maximum iterations (20) exceeded for all HVAC loops, at ANNUAL, 10/10 12:49 - 12:52
   **   ~~~   ** The solution for one or more of the Air Loop HVAC systems did not appear to converge
   **   ~~~   ** Air System Named = CENTRAL SYSTEM did not converge for energy
   **   ~~~   ** Check values should be zero. Most Recent values listed first.
   **   ~~~   ** Demand-to-Supply interface energy check value iteration history trace: 210.310120,210.310120,210.310120,210.310120,210.310120,210.310120,210.310120,210.310120,210.310120,210.310120,
   **   ~~~   ** Supply-to-demand interface deck 1 energy check value iteration history trace: 94.003877,94.003877,94.003877,94.003877,94.003877,94.003877,94.003877,94.003877,94.003877,94.003877,
   ** Warning ** SimHVAC: Maximum iterations (20) exceeded for all HVAC loops, at ANNUAL, 10/22 10:00 - 10:08
   **   ~~~   ** The solution for one or more of the Air Loop HVAC systems did not appear to converge
   **   ~~~   ** Air System Named = CENTRAL SYSTEM did not converge for mass flow rate
   **   ~~~   ** Check values should be zero. Most Recent values listed first.
   **   ~~~   ** Demand-to-Supply interface mass flow rate check value iteration history trace: 6.906439E-002,6.906439E-002,6.906439E-002,6.906439E-002,6.906439E-002,6.906439E-002,6.906439E-002,6.906439E-002,6.906439E-002,6.906439E-002,
   **   ~~~   ** Supply-to-demand interface deck 1 mass flow rate check value iteration history trace: 6.906439E-002,6.906439E-002,6.906439E-002,6.906439E-002,6.906439E-002,6.906439E-002,6.906439E-002,6.906439E-002,6.906439E-002,6.906439E-002,
   **   ~~~   ** Air System Named = CENTRAL SYSTEM did not converge for energy
   **   ~~~   ** Check values should be zero. Most Recent values listed first.
   **   ~~~   ** Demand-to-Supply interface energy check value iteration history trace: 1362.545324,1362.545324,1362.545324,1362.545324,1362.545324,1362.545324,1362.545324,1362.545324,1362.545323,1362.545323,
   **   ~~~   ** Supply-to-demand interface deck 1 energy check value iteration history trace: 2398.083379,2398.083379,2398.083379,2398.083379,2398.083379,2398.083379,2398.083379,2398.083379,2398.083378,2398.083378,
   ** Warning ** SimHVAC: Maximum iterations (20) exceeded for all HVAC loops, at ANNUAL, 10/23 09:45 - 10:00
   **   ~~~   ** The solution for one or more of the Air Loop HVAC systems did not appear to converge
   **   ~~~   ** Air System Named = CENTRAL SYSTEM did not converge for mass flow rate
   **   ~~~   ** Check values should be zero. Most Recent values listed first.
   **   ~~~   ** Demand-to-Supply interface mass flow rate check value iteration history trace: 6.281680E-002,6.281680E-002,6.281680E-002,6.281680E-002,6.281680E-002,6.281680E-002,6.281680E-002,6.281680E-002,6.281680E-002,6.281680E-002,
   **   ~~~   ** Supply-to-demand interface deck 1 mass flow rate check value iteration history trace: 6.281680E-002,6.281680E-002,6.281680E-002,6.281680E-002,6.281680E-002,6.281680E-002,6.281680E-002,6.281680E-002,6.281680E-002,6.281680E-002,
   **   ~~~   ** Air System Named = CENTRAL SYSTEM did not converge for energy
   **   ~~~   ** Check values should be zero. Most Recent values listed first.
   **   ~~~   ** Demand-to-Supply interface energy check value iteration history trace: 1244.827529,1244.827529,1244.827528,1244.827528,1244.827528,1244.827528,1244.827528,1244.827528,1244.827528,1244.827528,
   **   ~~~   ** Supply-to-demand interface deck 1 energy check value iteration history trace: 2202.122549,2202.122549,2202.122549,2202.122549,2202.122549,2202.122549,2202.122549,2202.122549,2202.122548,2202.122548,
   ** Warning ** SimHVAC: Maximum iterations (20) exceeded for all HVAC loops, at ANNUAL, 11/11 10:30 - 10:32
   **   ~~~   ** The solution for one or more of the Air Loop HVAC systems did not appear to converge
   **   ~~~   ** Air System Named = CENTRAL SYSTEM did not converge for mass flow rate
   **   ~~~   ** Check values should be zero. Most Recent values listed first.
   **   ~~~   ** Demand-to-Supply interface mass flow rate check value iteration history trace: 6.860658E-002,6.860658E-002,6.860658E-002,6.860658E-002,6.860658E-002,6.860658E-002,6.860658E-002,6.860658E-002,6.860658E-002,6.860658E-002,
   **   ~~~   ** Supply-to-demand interface deck 1 mass flow rate check value iteration history trace: 6.860658E-002,6.860658E-002,6.860658E-002,6.860658E-002,6.860658E-002,6.860658E-002,6.860658E-002,6.860658E-002,6.860658E-002,6.860658E-002,
   **   ~~~   ** Air System Named = CENTRAL SYSTEM did not converge for energy
   **   ~~~   ** Check values should be zero. Most Recent values listed first.
   **   ~~~   ** Demand-to-Supply interface energy check value iteration history trace: 1357.253602,1357.253602,1357.253602,1357.253602,1357.253602,1357.253602,1357.253602,1357.253602,1357.253602,1357.253601,
   **   ~~~   ** Supply-to-demand interface deck 1 energy check value iteration history trace: 2334.696487,2334.696487,2334.696487,2334.696487,2334.696487,2334.696487,2334.696487,2334.696486,2334.696486,2334.696486,
   ************* Simulation Error Summary *************
   ** Warning ** The following Report Variables were requested but not generated -- check.rdd file
   **   ~~~   ** Either the IDF did not contain these elements, the variable name is misspelled,
   **   ~~~   ** or the requested variable is an advanced output which requires Output : Diagnostics, DisplayAdvancedReportVariables;
   ************* Key=*, VarName=BASEBOARD TOTAL HEATING ENERGY, Frequency=
   ************* Key=*, VarName=WATER HEATER NATURALGAS ENERGY, Frequency=
   ************* Key=*, VarName=COOLING COIL TOTAL HEATING ENERGY, Frequency=
   ************* There are 34 unused schedules in input.
   ************* There are 388 unused week schedules in input.
   ************* There are 396 unused day schedules in input.
   ************* Use Output:Diagnostics,DisplayUnusedSchedules; to see them.
   *************
   ************* ===== Recurring Error Summary =====
   ************* The following recurring error messages occurred.
   *************
   *************  ** Warning ** "TOTAL HOT WATER LOAD" - Target water temperature should be less than or equal to the hot water temperature error continues...
   *************  **   ~~~   **   This error occurred 111853 total times;
   *************  **   ~~~   **   during Warmup 0 times;
   *************  **   ~~~   **   during Sizing 0 times.
   *************  **   ~~~   **   Max=13.615121  Min=6.025072E-004
   *************
   *************  ** Warning ** SimHVAC: Exceeding Maximum iterations for all HVAC loops, during ANNUAL continues
   *************  **   ~~~   **   This error occurred 1 total times;
   *************  **   ~~~   **   during Warmup 0 times;
   *************  **   ~~~   **   during Sizing 0 times.
   *************
   *************
   ************* ===== Final Error Summary =====
   ************* The following error categories occurred.  Consider correcting or noting.
   ************* Nominally Unused Constructions
   ************* ..The nominally unused constructions warning is provided to alert you to potential conditions that can cause
   ************* ..extra time during simulation. Each construction is calculated by the algorithm indicated in the HeatBalanceAlgorithm
   ************* ..object. You may remove the constructions indicated (when you use the DisplayExtraWarnings option).
   *************
   ************* EnergyPlus Warmup Error Summary. During Warmup: 1 Warning; 0 Severe Errors.
   ************* EnergyPlus Sizing Error Summary. During Sizing: 4 Warning; 0 Severe Errors.
   ************* EnergyPlus Completed Successfully-- 111885 Warning; 0 Severe Errors; Elapsed Time=00hr 01min 31.57sec
