Program Version,EnergyPlus, Version 22.2.0-c249759bad, YMD=2023.09.01 17:18,
   ************* Beginning Zone Sizing Calculations
   ** Warning ** ProcessScheduleInput: Schedule:Constant="ALWAYS ON DISCRETE", Schedule Type Limits Name="ONOFF" not found -- will not be validated
   ** Warning ** Foundation:Kiva="KIVA FOUNDATION", no Interior Horizontal Insulation Material Name defined
   **   ~~~   ** Interior Horizontal Insulation Depth will not be used.
   ** Warning ** CheckUsedConstructions: There are 15 nominally unused constructions in input.
   **   ~~~   ** Each Unused construction is shown.
   ************* Construction=INTERIOR FLOOR
   ************* Construction=INTERIOR WINDOW
   ************* Construction=EXTERIOR DOOR
   ************* Construction=INTERIOR DOOR
   ************* Construction=GABLE CONSTRUCTION
   ************* Construction=CRAWL_FLOOR
   ************* Construction=INSULATED PIPE
   ************* Construction=PLAIN PIPE
   ************* Construction=TDD PIPE
   ************* Construction=TDD DOME
   ************* Construction=TDD DIFFUSER
   ************* Construction=CRAWL WALL
   ************* Construction=CEILING-FLOOR-LAYER
   ************* Construction=SLAB CONSTRUCTION W FULL R10 INSULATION
   ************* Construction=SLAB CONSTRUCTION W FULL R5 INSULATION
   ** Warning ** GetDXCoils: Coil:Heating:DX:SingleSpeed="DX_HEATING_COIL" curve values
   **   ~~~   ** ... Defrost Energy Input Ratio Function of Temperature Curve Name = DEFROSTEIR output is not equal to 1.0 (+ or - 10%) at rated conditions.
   **   ~~~   ** ... Curve output at rated conditions = 0.152
   ************* Beginning System Sizing Calculations
   ************* Beginning Plant Sizing Calculations
   ** Warning ** Coil:WaterHeating:AirToWaterHeatPump:Wrapped "HEAT PUMP WATER HEATER EVAPORATOR": Rated air volume flow rate per watt of rated total water heating capacity is out of range
   **   ~~~   ** Min Rated Vol Flow Per Watt=[4.027E-005], Rated Vol Flow Per Watt=[1.510E-004], Max Rated Vol Flow Per Watt=[8.056E-005]. See Input-Output Reference Manual for valid range.
   ************* SizeFan: : Potential issue with equipment sizing for Fan:OnOff HEAT PUMP WATER HEATER FAN
   **   ~~~   ** User-Specified Maximum Flow Rate [m3/s] = 0.22653
   **   ~~~   ** differs from Design Size Maximum Flow Rate [m3/s] = 7.55250E-002
   **   ~~~   ** This may, or may not, indicate mismatched component sizes.
   **   ~~~   ** Verify that the value entered is intended and is consistent with other components.
   ** Warning ** Water heater = WATER HEATER TANK:  Recovery Efficiency and Energy Factor could not be calculated during the test for standard ratings
   **   ~~~   ** Setpoint was never recovered and/or heater never turned on
   ** Warning ** Check input. Pump nominal power or motor efficiency is set to 0, for pump=MAINS PRESSURE
   ** Warning ** Output:Meter: invalid Key Name="ELECTRIC_RANGE:INTERIOREQUIPMENT:ELECTRICITY" - not found.
   ** Warning ** Output:Meter: invalid Key Name="ELECTRIC_DRYER:INTERIOREQUIPMENT:ELECTRICITY" - not found.
   ** Warning ** Output:Meter: invalid Key Name="HEATRECOVERY:ELECTRICITY" - not found.
   ** Warning ** Output:Meter: invalid Key Name="HEATING:NATURALGAS" - not found.
   ** Warning ** Output:Meter: invalid Key Name="WATERSYSTEMS:NATURALGAS" - not found.
   ** Warning ** Output:Meter: invalid Key Name="PROPANE:FACILITY" - not found.
   ** Warning ** Output:Meter: invalid Key Name="HEATING:PROPANE" - not found.
   ************* Testing Individual Branch Integrity
   ************* All Branches passed integrity testing
   ************* Testing Individual Supply Air Path Integrity
   ************* All Supply Air Paths passed integrity testing
   ************* Testing Individual Return Air Path Integrity
   ************* All Return Air Paths passed integrity testing
   ************* No node connection errors were found.
   ************* Beginning Simulation
   ** Warning ** AirflowNetwork::Solver::validate_distribution: Heat pump water heater is simulated along with an AirflowNetwork but is not included in the AirflowNetwork.
   ** Warning ** CalcEquipmentFlowRates: "TOTAL HOT WATER LOAD" - Target water temperature is greater than the hot water temperature by (2.26 C)
   **   ~~~   **  Environment=EXTREME_WINTER, at Simulation time=02/17 06:00 - 06:15
   **   ~~~   ** ...target water temperature     = 53.33 C
   **   ~~~   ** ...hot water temperature        = 51.07 C
   **   ~~~   ** ...Target water temperature should be less than or equal to the hot water temperature. Verify temperature setpoints and schedules.
   ** Warning ** SimHVAC: Maximum iterations (20) exceeded for all HVAC loops, at ANNUAL, 01/09 19:45 - 20:00
   **   ~~~   ** The solution for one or more of the Air Loop HVAC systems did not appear to converge
   **   ~~~   ** Air System Named = CENTRAL SYSTEM did not converge for mass flow rate
   **   ~~~   ** Check values should be zero. Most Recent values listed first.
   **   ~~~   ** Demand-to-Supply interface mass flow rate check value iteration history trace: 6.294887E-002,6.294887E-002,6.294887E-002,6.294887E-002,6.294887E-002,6.294887E-002,6.294887E-002,6.294887E-002,6.294887E-002,6.294887E-002,
   **   ~~~   ** Supply-to-demand interface deck 1 mass flow rate check value iteration history trace: 6.294887E-002,6.294887E-002,6.294887E-002,6.294887E-002,6.294887E-002,6.294887E-002,6.294887E-002,6.294887E-002,6.294887E-002,6.294887E-002,
   **   ~~~   ** Air System Named = CENTRAL SYSTEM did not converge for energy
   **   ~~~   ** Check values should be zero. Most Recent values listed first.
   **   ~~~   ** Demand-to-Supply interface energy check value iteration history trace: 1223.098564,1223.098564,1223.098564,1223.098564,1223.098564,1223.098564,1223.098564,1223.098564,1223.098564,1223.098564,
   **   ~~~   ** Supply-to-demand interface deck 1 energy check value iteration history trace: 2222.800604,2222.800604,2222.800604,2222.800603,2222.800603,2222.800603,2222.800603,2222.800603,2222.800603,2222.800603,
   ** Warning ** SimHVAC: Maximum iterations (20) exceeded for all HVAC loops, at ANNUAL, 01/15 13:15 - 13:30
   **   ~~~   ** The solution for one or more of the Air Loop HVAC systems did not appear to converge
   **   ~~~   ** Air System Named = CENTRAL SYSTEM did not converge for mass flow rate
   **   ~~~   ** Check values should be zero. Most Recent values listed first.
   **   ~~~   ** Demand-to-Supply interface mass flow rate check value iteration history trace: 6.466037E-002,6.466037E-002,6.466037E-002,6.466037E-002,6.466037E-002,6.466037E-002,6.466037E-002,6.466037E-002,6.466037E-002,6.466037E-002,
   **   ~~~   ** Supply-to-demand interface deck 1 mass flow rate check value iteration history trace: 6.466037E-002,6.466037E-002,6.466037E-002,6.466037E-002,6.466037E-002,6.466037E-002,6.466037E-002,6.466037E-002,6.466037E-002,6.466037E-002,
   **   ~~~   ** Air System Named = CENTRAL SYSTEM did not converge for energy
   **   ~~~   ** Check values should be zero. Most Recent values listed first.
   **   ~~~   ** Demand-to-Supply interface energy check value iteration history trace: 1278.690361,1278.690361,1278.690360,1278.690360,1278.690360,1278.690360,1278.690360,1278.690360,1278.690360,1278.690360,
   **   ~~~   ** Supply-to-demand interface deck 1 energy check value iteration history trace: 2018.019164,2018.019163,2018.019163,2018.019163,2018.019163,2018.019163,2018.019163,2018.019163,2018.019163,2018.019162,
   ** Warning ** SimHVAC: Maximum iterations (20) exceeded for all HVAC loops, at ANNUAL, 02/11 11:00 - 11:05
   **   ~~~   ** The solution for one or more of the Air Loop HVAC systems did not appear to converge
   **   ~~~   ** Air System Named = CENTRAL SYSTEM did not converge for mass flow rate
   **   ~~~   ** Check values should be zero. Most Recent values listed first.
   **   ~~~   ** Demand-to-Supply interface mass flow rate check value iteration history trace: 7.173843E-002,7.173843E-002,7.173843E-002,7.173843E-002,7.173843E-002,7.173843E-002,7.173843E-002,7.173843E-002,7.173843E-002,7.173843E-002,
   **   ~~~   ** Supply-to-demand interface deck 1 mass flow rate check value iteration history trace: 7.173843E-002,7.173843E-002,7.173843E-002,7.173843E-002,7.173843E-002,7.173843E-002,7.173843E-002,7.173843E-002,7.173843E-002,7.173843E-002,
   **   ~~~   ** Air System Named = CENTRAL SYSTEM did not converge for energy
   **   ~~~   ** Check values should be zero. Most Recent values listed first.
   **   ~~~   ** Demand-to-Supply interface energy check value iteration history trace: 1421.589739,1421.589739,1421.589739,1421.589738,1421.589738,1421.589738,1421.589738,1421.589738,1421.589738,1421.589738,
   **   ~~~   ** Supply-to-demand interface deck 1 energy check value iteration history trace: 2338.249779,2338.249779,2338.249779,2338.249779,2338.249779,2338.249779,2338.249779,2338.249779,2338.249778,2338.249778,
   ** Warning ** SimHVAC: Maximum iterations (20) exceeded for all HVAC loops, at ANNUAL, 03/05 09:50 - 09:55
   **   ~~~   ** The solution for one or more of the Air Loop HVAC systems did not appear to converge
   **   ~~~   ** Air System Named = CENTRAL SYSTEM did not converge for mass flow rate
   **   ~~~   ** Check values should be zero. Most Recent values listed first.
   **   ~~~   ** Demand-to-Supply interface mass flow rate check value iteration history trace: 6.659080E-002,6.659080E-002,6.659080E-002,6.659080E-002,6.659080E-002,6.659080E-002,6.659080E-002,6.659080E-002,6.659080E-002,6.659080E-002,
   **   ~~~   ** Supply-to-demand interface deck 1 mass flow rate check value iteration history trace: 6.659080E-002,6.659080E-002,6.659080E-002,6.659080E-002,6.659080E-002,6.659080E-002,6.659080E-002,6.659080E-002,6.659080E-002,6.659080E-002,
   **   ~~~   ** Air System Named = CENTRAL SYSTEM did not converge for energy
   **   ~~~   ** Check values should be zero. Most Recent values listed first.
   **   ~~~   ** Demand-to-Supply interface energy check value iteration history trace: 1319.617483,1319.617483,1319.617482,1319.617482,1319.617482,1319.617481,1319.617481,1319.617481,1319.617480,1319.617480,
   **   ~~~   ** Supply-to-demand interface deck 1 energy check value iteration history trace: 2436.803730,2436.803729,2436.803728,2436.803728,2436.803727,2436.803726,2436.803726,2436.803725,2436.803725,2436.803724,
   **   ~~~   ** Node named ZONE INLET NODE shows oscillating temperatures across iterations with a repeated value of 36.417304
   **   ~~~   ** Node named ZONE INLET NODE temperature [C] iteration history trace (most recent first): 36.417304,36.417303,36.417303,36.417303,36.417302,36.417302,36.417302,36.417301,36.417301,36.417301,
   ** Warning ** SimHVAC: Maximum iterations (20) exceeded for all HVAC loops, at ANNUAL, 03/25 10:57 - 11:00
   **   ~~~   ** The solution for one or more of the Air Loop HVAC systems did not appear to converge
   **   ~~~   ** Air System Named = CENTRAL SYSTEM did not converge for mass flow rate
   **   ~~~   ** Check values should be zero. Most Recent values listed first.
   **   ~~~   ** Demand-to-Supply interface mass flow rate check value iteration history trace: 5.743369E-002,5.743369E-002,5.743369E-002,5.743369E-002,5.743369E-002,5.743369E-002,5.743369E-002,5.743369E-002,5.743369E-002,5.743369E-002,
   **   ~~~   ** Supply-to-demand interface deck 1 mass flow rate check value iteration history trace: 5.743369E-002,5.743369E-002,5.743369E-002,5.743369E-002,5.743369E-002,5.743369E-002,5.743369E-002,5.743369E-002,5.743369E-002,5.743369E-002,
   **   ~~~   ** Air System Named = CENTRAL SYSTEM did not converge for energy
   **   ~~~   ** Check values should be zero. Most Recent values listed first.
   **   ~~~   ** Demand-to-Supply interface energy check value iteration history trace: 1138.165287,1138.165287,1138.165287,1138.165287,1138.165287,1138.165287,1138.165287,1138.165287,1138.165287,1138.165287,
   **   ~~~   ** Supply-to-demand interface deck 1 energy check value iteration history trace: 2061.042473,2061.042473,2061.042473,2061.042473,2061.042473,2061.042473,2061.042473,2061.042473,2061.042473,2061.042472,
   ** Warning ** SimHVAC: Maximum iterations (20) exceeded for all HVAC loops, at ANNUAL, 03/27 18:30 - 18:45
   **   ~~~   ** The solution for one or more of the Air Loop HVAC systems did not appear to converge
   **   ~~~   ** Air System Named = CENTRAL SYSTEM did not converge for mass flow rate
   **   ~~~   ** Check values should be zero. Most Recent values listed first.
   **   ~~~   ** Demand-to-Supply interface mass flow rate check value iteration history trace: 5.715792E-002,5.715792E-002,5.715792E-002,5.715792E-002,5.715792E-002,5.715792E-002,5.715792E-002,5.715792E-002,5.715792E-002,5.715792E-002,
   **   ~~~   ** Supply-to-demand interface deck 1 mass flow rate check value iteration history trace: 5.715792E-002,5.715792E-002,5.715792E-002,5.715792E-002,5.715792E-002,5.715792E-002,5.715792E-002,5.715792E-002,5.715792E-002,5.715792E-002,
   **   ~~~   ** Air System Named = CENTRAL SYSTEM did not converge for energy
   **   ~~~   ** Check values should be zero. Most Recent values listed first.
   **   ~~~   ** Demand-to-Supply interface energy check value iteration history trace: 1131.118945,1131.118945,1131.118945,1131.118945,1131.118945,1131.118945,1131.118945,1131.118945,1131.118945,1131.118945,
   **   ~~~   ** Supply-to-demand interface deck 1 energy check value iteration history trace: 2049.068335,2049.068335,2049.068335,2049.068335,2049.068335,2049.068335,2049.068335,2049.068335,2049.068335,2049.068335,
   ** Warning ** SimHVAC: Maximum iterations (20) exceeded for all HVAC loops, at ANNUAL, 03/28 00:15 - 00:30
   **   ~~~   ** The solution for one or more of the Air Loop HVAC systems did not appear to converge
   **   ~~~   ** Air System Named = CENTRAL SYSTEM did not converge for mass flow rate
   **   ~~~   ** Check values should be zero. Most Recent values listed first.
   **   ~~~   ** Demand-to-Supply interface mass flow rate check value iteration history trace: 5.190303E-002,5.190303E-002,5.190303E-002,5.190303E-002,5.190303E-002,5.190303E-002,5.190303E-002,5.190303E-002,5.190303E-002,5.190303E-002,
   **   ~~~   ** Supply-to-demand interface deck 1 mass flow rate check value iteration history trace: 5.190303E-002,5.190303E-002,5.190303E-002,5.190303E-002,5.190303E-002,5.190303E-002,5.190303E-002,5.190303E-002,5.190303E-002,5.190303E-002,
   **   ~~~   ** Air System Named = CENTRAL SYSTEM did not converge for energy
   **   ~~~   ** Check values should be zero. Most Recent values listed first.
   **   ~~~   ** Demand-to-Supply interface energy check value iteration history trace: 969.068506,969.068506,969.068506,969.068506,969.068506,969.068506,969.068506,969.068505,969.068505,969.068505,
   **   ~~~   ** Supply-to-demand interface deck 1 energy check value iteration history trace: 1772.640655,1772.640655,1772.640655,1772.640655,1772.640655,1772.640655,1772.640655,1772.640655,1772.640655,1772.640655,
   ** Warning ** SimHVAC: Maximum iterations (20) exceeded for all HVAC loops, at ANNUAL, 04/16 08:55 - 09:00
   **   ~~~   ** The solution for one or more of the Air Loop HVAC systems did not appear to converge
   **   ~~~   ** Air System Named = CENTRAL SYSTEM did not converge for mass flow rate
   **   ~~~   ** Check values should be zero. Most Recent values listed first.
   **   ~~~   ** Demand-to-Supply interface mass flow rate check value iteration history trace: 5.974378E-002,5.974378E-002,5.974378E-002,5.974378E-002,5.974378E-002,5.974378E-002,5.974378E-002,5.974378E-002,5.974378E-002,5.974378E-002,
   **   ~~~   ** Supply-to-demand interface deck 1 mass flow rate check value iteration history trace: 5.974378E-002,5.974378E-002,5.974378E-002,5.974378E-002,5.974378E-002,5.974378E-002,5.974378E-002,5.974378E-002,5.974378E-002,5.974378E-002,
   **   ~~~   ** Air System Named = CENTRAL SYSTEM did not converge for energy
   **   ~~~   ** Check values should be zero. Most Recent values listed first.
   **   ~~~   ** Demand-to-Supply interface energy check value iteration history trace: 1183.919832,1183.919832,1183.919832,1183.919831,1183.919831,1183.919831,1183.919830,1183.919830,1183.919829,1183.919829,
   **   ~~~   ** Supply-to-demand interface deck 1 energy check value iteration history trace: 2239.840538,2239.840537,2239.840536,2239.840535,2239.840535,2239.840534,2239.840533,2239.840533,2239.840532,2239.840531,
   **   ~~~   ** Node named ZONE INLET NODE shows oscillating temperatures across iterations with a repeated value of 37.310056
   **   ~~~   ** Node named ZONE INLET NODE temperature [C] iteration history trace (most recent first): 37.310056,37.310055,37.310055,37.310054,37.310054,37.310053,37.310053,37.310052,37.310051,37.310051,
   ** Warning ** SimHVAC: Maximum iterations (20) exceeded for all HVAC loops, at ANNUAL, 04/19 05:45 - 06:00
   **   ~~~   ** The solution for one or more of the Air Loop HVAC systems did not appear to converge
   **   ~~~   ** Air System Named = CENTRAL SYSTEM did not converge for mass flow rate
   **   ~~~   ** Check values should be zero. Most Recent values listed first.
   **   ~~~   ** Demand-to-Supply interface mass flow rate check value iteration history trace: 2.472605E-002,2.472605E-002,2.472605E-002,2.472605E-002,2.472605E-002,2.472605E-002,2.472605E-002,2.472605E-002,2.472605E-002,2.472605E-002,
   **   ~~~   ** Supply-to-demand interface deck 1 mass flow rate check value iteration history trace: 2.472605E-002,2.472605E-002,2.472605E-002,2.472605E-002,2.472605E-002,2.472605E-002,2.472605E-002,2.472605E-002,2.472605E-002,2.472605E-002,
   **   ~~~   ** Air System Named = CENTRAL SYSTEM did not converge for energy
   **   ~~~   ** Check values should be zero. Most Recent values listed first.
   **   ~~~   ** Demand-to-Supply interface energy check value iteration history trace: 481.121694,481.121694,481.121694,481.121694,481.121694,481.121694,481.121694,481.121694,481.121694,481.121694,
   **   ~~~   ** Supply-to-demand interface deck 1 energy check value iteration history trace: 878.480740,878.480740,878.480740,878.480740,878.480739,878.480739,878.480739,878.480739,878.480739,878.480739,
   ** Warning ** SimHVAC: Maximum iterations (20) exceeded for all HVAC loops, at ANNUAL, 12/31 20:45 - 20:52
   **   ~~~   ** The solution for one or more of the Air Loop HVAC systems did not appear to converge
   **   ~~~   ** Air System Named = CENTRAL SYSTEM did not converge for mass flow rate
   **   ~~~   ** Check values should be zero. Most Recent values listed first.
   **   ~~~   ** Demand-to-Supply interface mass flow rate check value iteration history trace: 6.655536E-002,6.655536E-002,6.655536E-002,6.655536E-002,6.655536E-002,6.655536E-002,6.655536E-002,6.655536E-002,6.655536E-002,6.655536E-002,
   **   ~~~   ** Supply-to-demand interface deck 1 mass flow rate check value iteration history trace: 6.655536E-002,6.655536E-002,6.655536E-002,6.655536E-002,6.655536E-002,6.655536E-002,6.655536E-002,6.655536E-002,6.655536E-002,6.655536E-002,
   **   ~~~   ** Air System Named = CENTRAL SYSTEM did not converge for energy
   **   ~~~   ** Check values should be zero. Most Recent values listed first.
   **   ~~~   ** Demand-to-Supply interface energy check value iteration history trace: 1304.269394,1304.269394,1304.269394,1304.269393,1304.269393,1304.269393,1304.269393,1304.269392,1304.269392,1304.269392,
   **   ~~~   ** Supply-to-demand interface deck 1 energy check value iteration history trace: 2328.263045,2328.263044,2328.263044,2328.263043,2328.263043,2328.263042,2328.263042,2328.263041,2328.263041,2328.263040,
   **   ~~~   ** Node named ZONE INLET NODE shows oscillating temperatures across iterations with a repeated value of 34.813718
   **   ~~~   ** Node named ZONE INLET NODE temperature [C] iteration history trace (most recent first): 34.813718,34.813718,34.813718,34.813717,34.813717,34.813717,34.813717,34.813716,34.813716,34.813716,
   ************* Simulation Error Summary *************
   ** Warning ** The following Report Variables were requested but not generated -- check.rdd file
   **   ~~~   ** Either the IDF did not contain these elements, the variable name is misspelled,
   **   ~~~   ** or the requested variable is an advanced output which requires Output : Diagnostics, DisplayAdvancedReportVariables;
   ************* Key=*, VarName=BASEBOARD TOTAL HEATING ENERGY, Frequency=
   ************* Key=*, VarName=WATER HEATER NATURALGAS ENERGY, Frequency=
   ************* Key=*, VarName=COOLING COIL TOTAL HEATING ENERGY, Frequency=
   ************* There are 34 unused schedules in input.
   ************* There are 388 unused week schedules in input.
   ************* There are 396 unused day schedules in input.
   ************* Use Output:Diagnostics,DisplayUnusedSchedules; to see them.
   *************
   ************* ===== Recurring Error Summary =====
   ************* The following recurring error messages occurred.
   *************
   *************  ** Warning ** "TOTAL HOT WATER LOAD" - Target water temperature should be less than or equal to the hot water temperature error continues...
   *************  **   ~~~   **   This error occurred 114851 total times;
   *************  **   ~~~   **   during Warmup 0 times;
   *************  **   ~~~   **   during Sizing 0 times.
   *************  **   ~~~   **   Max=9.960067  Min=4.927664E-004
   *************
   *************
   ************* ===== Final Error Summary =====
   ************* The following error categories occurred.  Consider correcting or noting.
   ************* Nominally Unused Constructions
   ************* ..The nominally unused constructions warning is provided to alert you to potential conditions that can cause
   ************* ..extra time during simulation. Each construction is calculated by the algorithm indicated in the HeatBalanceAlgorithm
   ************* ..object. You may remove the constructions indicated (when you use the DisplayExtraWarnings option).
   *************
   ************* EnergyPlus Warmup Error Summary. During Warmup: 1 Warning; 0 Severe Errors.
   ************* EnergyPlus Sizing Error Summary. During Sizing: 4 Warning; 0 Severe Errors.
   ************* EnergyPlus Completed Successfully-- 114878 Warning; 0 Severe Errors; Elapsed Time=00hr 05min 41.65sec
