Program Version,EnergyPlus, Version 22.2.0-c249759bad, YMD=2023.09.01 16:42,
   ************* Beginning Zone Sizing Calculations
   ** Warning ** ProcessScheduleInput: Schedule:Constant="ALWAYS ON DISCRETE", Schedule Type Limits Name="ONOFF" not found -- will not be validated
   ** Warning ** Foundation:Kiva="KIVA FOUNDATION", no Interior Horizontal Insulation Material Name defined
   **   ~~~   ** Interior Horizontal Insulation Depth will not be used.
   ** Warning ** CheckUsedConstructions: There are 15 nominally unused constructions in input.
   **   ~~~   ** Each Unused construction is shown.
   ************* Construction=INTERIOR FLOOR
   ************* Construction=INTERIOR WINDOW
   ************* Construction=EXTERIOR DOOR
   ************* Construction=INTERIOR DOOR
   ************* Construction=GABLE CONSTRUCTION
   ************* Construction=CRAWL_FLOOR
   ************* Construction=INSULATED PIPE
   ************* Construction=PLAIN PIPE
   ************* Construction=TDD PIPE
   ************* Construction=TDD DOME
   ************* Construction=TDD DIFFUSER
   ************* Construction=CRAWL WALL
   ************* Construction=CEILING-FLOOR-LAYER
   ************* Construction=SLAB CONSTRUCTION W FULL R10 INSULATION
   ************* Construction=SLAB CONSTRUCTION W FULL R5 INSULATION
   ** Warning ** GetDXCoils: Coil:Heating:DX:SingleSpeed="DX_HEATING_COIL" curve values
   **   ~~~   ** ... Defrost Energy Input Ratio Function of Temperature Curve Name = DEFROSTEIR output is not equal to 1.0 (+ or - 10%) at rated conditions.
   **   ~~~   ** ... Curve output at rated conditions = 0.152
   ************* Beginning System Sizing Calculations
   ************* Beginning Plant Sizing Calculations
   ** Warning ** Coil:WaterHeating:AirToWaterHeatPump:Wrapped "HEAT PUMP WATER HEATER EVAPORATOR": Rated air volume flow rate per watt of rated total water heating capacity is out of range
   **   ~~~   ** Min Rated Vol Flow Per Watt=[4.027E-005], Rated Vol Flow Per Watt=[1.510E-004], Max Rated Vol Flow Per Watt=[8.056E-005]. See Input-Output Reference Manual for valid range.
   ************* SizeFan: : Potential issue with equipment sizing for Fan:OnOff HEAT PUMP WATER HEATER FAN
   **   ~~~   ** User-Specified Maximum Flow Rate [m3/s] = 0.22653
   **   ~~~   ** differs from Design Size Maximum Flow Rate [m3/s] = 7.55250E-002
   **   ~~~   ** This may, or may not, indicate mismatched component sizes.
   **   ~~~   ** Verify that the value entered is intended and is consistent with other components.
   ** Warning ** Water heater = WATER HEATER TANK:  Recovery Efficiency and Energy Factor could not be calculated during the test for standard ratings
   **   ~~~   ** Setpoint was never recovered and/or heater never turned on
   ** Warning ** Check input. Pump nominal power or motor efficiency is set to 0, for pump=MAINS PRESSURE
   ** Warning ** Output:Meter: invalid Key Name="ELECTRIC_RANGE:INTERIOREQUIPMENT:ELECTRICITY" - not found.
   ** Warning ** Output:Meter: invalid Key Name="ELECTRIC_DRYER:INTERIOREQUIPMENT:ELECTRICITY" - not found.
   ** Warning ** Output:Meter: invalid Key Name="HEATRECOVERY:ELECTRICITY" - not found.
   ** Warning ** Output:Meter: invalid Key Name="HEATING:NATURALGAS" - not found.
   ** Warning ** Output:Meter: invalid Key Name="WATERSYSTEMS:NATURALGAS" - not found.
   ** Warning ** Output:Meter: invalid Key Name="PROPANE:FACILITY" - not found.
   ** Warning ** Output:Meter: invalid Key Name="HEATING:PROPANE" - not found.
   ************* Testing Individual Branch Integrity
   ************* All Branches passed integrity testing
   ************* Testing Individual Supply Air Path Integrity
   ************* All Supply Air Paths passed integrity testing
   ************* Testing Individual Return Air Path Integrity
   ************* All Return Air Paths passed integrity testing
   ************* No node connection errors were found.
   ************* Beginning Simulation
   ** Warning ** AirflowNetwork::Solver::validate_distribution: Heat pump water heater is simulated along with an AirflowNetwork but is not included in the AirflowNetwork.
   ** Warning ** CalcEquipmentFlowRates: "TOTAL HOT WATER LOAD" - Target water temperature is greater than the hot water temperature by (1.29 C)
   **   ~~~   **  Environment=EXTREME_WINTER, at Simulation time=12/15 03:45 - 04:00
   **   ~~~   ** ...target water temperature     = 53.33 C
   **   ~~~   ** ...hot water temperature        = 52.05 C
   **   ~~~   ** ...Target water temperature should be less than or equal to the hot water temperature. Verify temperature setpoints and schedules.
   ** Warning ** SimHVAC: Maximum iterations (20) exceeded for all HVAC loops, at EXTREME_WINTER, 12/21 08:15 - 08:22
   **   ~~~   ** The solution for one or more of the Air Loop HVAC systems did not appear to converge
   **   ~~~   ** Air System Named = CENTRAL SYSTEM did not converge for mass flow rate
   **   ~~~   ** Check values should be zero. Most Recent values listed first.
   **   ~~~   ** Demand-to-Supply interface mass flow rate check value iteration history trace: 3.209625E-002,3.209625E-002,3.209625E-002,3.209625E-002,3.209625E-002,3.209625E-002,3.209625E-002,3.209625E-002,3.209625E-002,3.209625E-002,
   **   ~~~   ** Supply-to-demand interface deck 1 mass flow rate check value iteration history trace: 3.209625E-002,3.209625E-002,3.209625E-002,3.209625E-002,3.209625E-002,3.209625E-002,3.209625E-002,3.209625E-002,3.209625E-002,3.209625E-002,
   **   ~~~   ** Air System Named = CENTRAL SYSTEM did not converge for energy
   **   ~~~   ** Check values should be zero. Most Recent values listed first.
   **   ~~~   ** Demand-to-Supply interface energy check value iteration history trace: 636.666950,636.666950,636.666950,636.666950,636.666950,636.666950,636.666950,636.666950,636.666950,636.666950,
   **   ~~~   ** Supply-to-demand interface deck 1 energy check value iteration history trace: 1088.770635,1088.770635,1088.770635,1088.770634,1088.770634,1088.770634,1088.770634,1088.770634,1088.770634,1088.770634,
   ** Warning ** SimHVAC: Maximum iterations (20) exceeded for all HVAC loops, at ANNUAL, 01/08 08:17 - 08:20
   **   ~~~   ** The solution for one or more of the Air Loop HVAC systems did not appear to converge
   **   ~~~   ** Air System Named = CENTRAL SYSTEM did not converge for mass flow rate
   **   ~~~   ** Check values should be zero. Most Recent values listed first.
   **   ~~~   ** Demand-to-Supply interface mass flow rate check value iteration history trace: 5.081700E-002,5.081700E-002,5.081700E-002,5.081700E-002,5.081700E-002,5.081700E-002,5.081700E-002,5.081700E-002,5.081700E-002,5.081700E-002,
   **   ~~~   ** Supply-to-demand interface deck 1 mass flow rate check value iteration history trace: 5.081700E-002,5.081700E-002,5.081700E-002,5.081700E-002,5.081700E-002,5.081700E-002,5.081700E-002,5.081700E-002,5.081700E-002,5.081700E-002,
   **   ~~~   ** Air System Named = CENTRAL SYSTEM did not converge for energy
   **   ~~~   ** Check values should be zero. Most Recent values listed first.
   **   ~~~   ** Demand-to-Supply interface energy check value iteration history trace: 1003.599132,1003.599132,1003.599132,1003.599132,1003.599132,1003.599132,1003.599132,1003.599132,1003.599132,1003.599132,
   **   ~~~   ** Supply-to-demand interface deck 1 energy check value iteration history trace: 1798.742022,1798.742022,1798.742022,1798.742022,1798.742022,1798.742022,1798.742021,1798.742021,1798.742021,1798.742021,
   ** Warning ** SimHVAC: Maximum iterations (20) exceeded for all HVAC loops, at ANNUAL, 02/11 21:45 - 22:00
   **   ~~~   ** The solution for one or more of the Air Loop HVAC systems did not appear to converge
   **   ~~~   ** Air System Named = CENTRAL SYSTEM did not converge for mass flow rate
   **   ~~~   ** Check values should be zero. Most Recent values listed first.
   **   ~~~   ** Demand-to-Supply interface mass flow rate check value iteration history trace: 1.258198E-002,1.258198E-002,1.258198E-002,1.258198E-002,1.258198E-002,1.258198E-002,1.258198E-002,1.258198E-002,1.258198E-002,1.258198E-002,
   **   ~~~   ** Supply-to-demand interface deck 1 mass flow rate check value iteration history trace: 1.258198E-002,1.258198E-002,1.258198E-002,1.258198E-002,1.258198E-002,1.258198E-002,1.258198E-002,1.258198E-002,1.258198E-002,1.258198E-002,
   **   ~~~   ** Air System Named = CENTRAL SYSTEM did not converge for energy
   **   ~~~   ** Check values should be zero. Most Recent values listed first.
   **   ~~~   ** Demand-to-Supply interface energy check value iteration history trace: 294.729220,294.729220,294.729220,294.729220,294.729221,294.729221,294.729221,294.729221,294.729221,294.729221,
   **   ~~~   ** Supply-to-demand interface deck 1 energy check value iteration history trace: 131.630165,131.630166,131.630166,131.630166,131.630166,131.630166,131.630166,131.630166,131.630166,131.630166,
   ** Warning ** SimHVAC: Maximum iterations (20) exceeded for all HVAC loops, at ANNUAL, 02/15 07:15 - 07:30
   **   ~~~   ** The solution for one or more of the Air Loop HVAC systems did not appear to converge
   **   ~~~   ** Air System Named = CENTRAL SYSTEM did not converge for mass flow rate
   **   ~~~   ** Check values should be zero. Most Recent values listed first.
   **   ~~~   ** Demand-to-Supply interface mass flow rate check value iteration history trace: 5.767076E-002,5.767076E-002,5.767076E-002,5.767076E-002,5.767076E-002,5.767076E-002,5.767076E-002,5.767076E-002,5.767076E-002,5.767076E-002,
   **   ~~~   ** Supply-to-demand interface deck 1 mass flow rate check value iteration history trace: 5.767076E-002,5.767076E-002,5.767076E-002,5.767076E-002,5.767076E-002,5.767076E-002,5.767076E-002,5.767076E-002,5.767076E-002,5.767076E-002,
   **   ~~~   ** Air System Named = CENTRAL SYSTEM did not converge for energy
   **   ~~~   ** Check values should be zero. Most Recent values listed first.
   **   ~~~   ** Demand-to-Supply interface energy check value iteration history trace: 1142.104842,1142.104842,1142.104842,1142.104842,1142.104842,1142.104842,1142.104842,1142.104842,1142.104842,1142.104842,
   **   ~~~   ** Supply-to-demand interface deck 1 energy check value iteration history trace: 1968.077491,1968.077491,1968.077491,1968.077491,1968.077491,1968.077491,1968.077491,1968.077490,1968.077490,1968.077490,
   ** Warning ** SimHVAC: Maximum iterations (20) exceeded for all HVAC loops, at ANNUAL, 02/23 16:53 - 17:00
   **   ~~~   ** The solution for one or more of the Air Loop HVAC systems did not appear to converge
   **   ~~~   ** Air System Named = CENTRAL SYSTEM did not converge for mass flow rate
   **   ~~~   ** Check values should be zero. Most Recent values listed first.
   **   ~~~   ** Demand-to-Supply interface mass flow rate check value iteration history trace: 9.676010E-002,9.676010E-002,9.676010E-002,9.676010E-002,9.676010E-002,9.676010E-002,9.676010E-002,9.676010E-002,9.676010E-002,9.676010E-002,
   **   ~~~   ** Supply-to-demand interface deck 1 mass flow rate check value iteration history trace: 9.676010E-002,9.676010E-002,9.676010E-002,9.676010E-002,9.676010E-002,9.676010E-002,9.676010E-002,9.676010E-002,9.676010E-002,9.676010E-002,
   **   ~~~   ** Air System Named = CENTRAL SYSTEM did not converge for energy
   **   ~~~   ** Check values should be zero. Most Recent values listed first.
   **   ~~~   ** Demand-to-Supply interface energy check value iteration history trace: 2280.663589,2280.663589,2280.663589,2280.663590,2280.663590,2280.663590,2280.663590,2280.663590,2280.663590,2280.663590,
   **   ~~~   ** Supply-to-demand interface deck 1 energy check value iteration history trace: 859.161479,859.161479,859.161479,859.161479,859.161479,859.161479,859.161479,859.161480,859.161480,859.161480,
   ** Warning ** SimHVAC: Maximum iterations (20) exceeded for all HVAC loops, at ANNUAL, 12/18 06:15 - 06:30
   **   ~~~   ** The solution for one or more of the Air Loop HVAC systems did not appear to converge
   **   ~~~   ** Air System Named = CENTRAL SYSTEM did not converge for mass flow rate
   **   ~~~   ** Check values should be zero. Most Recent values listed first.
   **   ~~~   ** Demand-to-Supply interface mass flow rate check value iteration history trace: 7.070579E-002,7.070579E-002,7.070579E-002,7.070579E-002,7.070579E-002,7.070579E-002,7.070579E-002,7.070579E-002,7.070579E-002,7.070579E-002,
   **   ~~~   ** Supply-to-demand interface deck 1 mass flow rate check value iteration history trace: 7.070579E-002,7.070579E-002,7.070579E-002,7.070579E-002,7.070579E-002,7.070579E-002,7.070579E-002,7.070579E-002,7.070579E-002,7.070579E-002,
   **   ~~~   ** Air System Named = CENTRAL SYSTEM did not converge for energy
   **   ~~~   ** Check values should be zero. Most Recent values listed first.
   **   ~~~   ** Demand-to-Supply interface energy check value iteration history trace: 1401.007562,1401.007561,1401.007561,1401.007561,1401.007561,1401.007561,1401.007561,1401.007561,1401.007561,1401.007561,
   **   ~~~   ** Supply-to-demand interface deck 1 energy check value iteration history trace: 2406.683759,2406.683759,2406.683759,2406.683759,2406.683759,2406.683758,2406.683758,2406.683758,2406.683758,2406.683758,
   ** Warning ** SimHVAC: Maximum iterations (20) exceeded for all HVAC loops, at ANNUAL, 12/29 13:08 - 13:15
   **   ~~~   ** The solution for one or more of the Air Loop HVAC systems did not appear to converge
   **   ~~~   ** Air System Named = CENTRAL SYSTEM did not converge for mass flow rate
   **   ~~~   ** Check values should be zero. Most Recent values listed first.
   **   ~~~   ** Demand-to-Supply interface mass flow rate check value iteration history trace: 4.180993E-002,4.180993E-002,4.180993E-002,4.180993E-002,4.180993E-002,4.180993E-002,4.180993E-002,4.180993E-002,4.180993E-002,4.180993E-002,
   **   ~~~   ** Supply-to-demand interface deck 1 mass flow rate check value iteration history trace: 4.180993E-002,4.180993E-002,4.180993E-002,4.180993E-002,4.180993E-002,4.180993E-002,4.180993E-002,4.180993E-002,4.180993E-002,4.180993E-002,
   **   ~~~   ** Air System Named = CENTRAL SYSTEM did not converge for energy
   **   ~~~   ** Check values should be zero. Most Recent values listed first.
   **   ~~~   ** Demand-to-Supply interface energy check value iteration history trace: 984.003483,984.003483,984.003483,984.003483,984.003483,984.003483,984.003484,984.003484,984.003484,984.003484,
   **   ~~~   ** Supply-to-demand interface deck 1 energy check value iteration history trace: 366.122159,366.122159,366.122159,366.122159,366.122159,366.122159,366.122159,366.122159,366.122159,366.122159,
   ** Warning ** SimHVAC: Maximum iterations (20) exceeded for all HVAC loops, at ANNUAL, 12/30 04:25 - 04:30
   **   ~~~   ** The solution for one or more of the Air Loop HVAC systems did not appear to converge
   **   ~~~   ** Air System Named = CENTRAL SYSTEM did not converge for mass flow rate
   **   ~~~   ** Check values should be zero. Most Recent values listed first.
   **   ~~~   ** Demand-to-Supply interface mass flow rate check value iteration history trace: 6.697366E-002,6.697366E-002,6.697366E-002,6.697366E-002,6.697366E-002,6.697366E-002,6.697366E-002,6.697366E-002,6.697366E-002,6.697366E-002,
   **   ~~~   ** Supply-to-demand interface deck 1 mass flow rate check value iteration history trace: 6.697366E-002,6.697366E-002,6.697366E-002,6.697366E-002,6.697366E-002,6.697366E-002,6.697366E-002,6.697366E-002,6.697366E-002,6.697366E-002,
   **   ~~~   ** Air System Named = CENTRAL SYSTEM did not converge for energy
   **   ~~~   ** Check values should be zero. Most Recent values listed first.
   **   ~~~   ** Demand-to-Supply interface energy check value iteration history trace: 1251.344175,1251.344175,1251.344175,1251.344175,1251.344175,1251.344175,1251.344175,1251.344174,1251.344174,1251.344174,
   **   ~~~   ** Supply-to-demand interface deck 1 energy check value iteration history trace: 2028.159000,2028.159000,2028.159000,2028.159000,2028.158999,2028.158999,2028.158999,2028.158999,2028.158999,2028.158999,
   ** Warning ** SimHVAC: Maximum iterations (20) exceeded for all HVAC loops, at ANNUAL, 12/31 08:15 - 08:30
   **   ~~~   ** The solution for one or more of the Air Loop HVAC systems did not appear to converge
   **   ~~~   ** Air System Named = CENTRAL SYSTEM did not converge for mass flow rate
   **   ~~~   ** Check values should be zero. Most Recent values listed first.
   **   ~~~   ** Demand-to-Supply interface mass flow rate check value iteration history trace: 4.233376E-002,4.233376E-002,4.233376E-002,4.233376E-002,4.233376E-002,4.233376E-002,4.233376E-002,4.233376E-002,4.233376E-002,4.233376E-002,
   **   ~~~   ** Supply-to-demand interface deck 1 mass flow rate check value iteration history trace: 4.233376E-002,4.233376E-002,4.233376E-002,4.233376E-002,4.233376E-002,4.233376E-002,4.233376E-002,4.233376E-002,4.233376E-002,4.233376E-002,
   **   ~~~   ** Air System Named = CENTRAL SYSTEM did not converge for energy
   **   ~~~   ** Check values should be zero. Most Recent values listed first.
   **   ~~~   ** Demand-to-Supply interface energy check value iteration history trace: 832.884318,832.884318,832.884318,832.884318,832.884318,832.884318,832.884318,832.884318,832.884317,832.884317,
   **   ~~~   ** Supply-to-demand interface deck 1 energy check value iteration history trace: 1449.898545,1449.898545,1449.898545,1449.898545,1449.898545,1449.898545,1449.898545,1449.898545,1449.898545,1449.898545,
   ************* Simulation Error Summary *************
   ** Warning ** The following Report Variables were requested but not generated -- check.rdd file
   **   ~~~   ** Either the IDF did not contain these elements, the variable name is misspelled,
   **   ~~~   ** or the requested variable is an advanced output which requires Output : Diagnostics, DisplayAdvancedReportVariables;
   ************* Key=*, VarName=BASEBOARD TOTAL HEATING ENERGY, Frequency=
   ************* Key=*, VarName=WATER HEATER NATURALGAS ENERGY, Frequency=
   ************* Key=*, VarName=COOLING COIL TOTAL HEATING ENERGY, Frequency=
   ************* There are 34 unused schedules in input.
   ************* There are 388 unused week schedules in input.
   ************* There are 396 unused day schedules in input.
   ************* Use Output:Diagnostics,DisplayUnusedSchedules; to see them.
   *************
   ************* ===== Recurring Error Summary =====
   ************* The following recurring error messages occurred.
   *************
   *************  ** Warning ** "TOTAL HOT WATER LOAD" - Target water temperature should be less than or equal to the hot water temperature error continues...
   *************  **   ~~~   **   This error occurred 71693 total times;
   *************  **   ~~~   **   during Warmup 0 times;
   *************  **   ~~~   **   during Sizing 0 times.
   *************  **   ~~~   **   Max=5.956068  Min=7.204955E-005
   *************
   *************
   ************* ===== Final Error Summary =====
   ************* The following error categories occurred.  Consider correcting or noting.
   ************* Nominally Unused Constructions
   ************* ..The nominally unused constructions warning is provided to alert you to potential conditions that can cause
   ************* ..extra time during simulation. Each construction is calculated by the algorithm indicated in the HeatBalanceAlgorithm
   ************* ..object. You may remove the constructions indicated (when you use the DisplayExtraWarnings option).
   *************
   ************* EnergyPlus Warmup Error Summary. During Warmup: 1 Warning; 0 Severe Errors.
   ************* EnergyPlus Sizing Error Summary. During Sizing: 4 Warning; 0 Severe Errors.
   ************* EnergyPlus Completed Successfully-- 71719 Warning; 0 Severe Errors; Elapsed Time=00hr 01min 25.22sec
