Program Version,EnergyPlus, Version 22.2.0-c249759bad, YMD=2023.09.01 18:55,
   ************* Beginning Zone Sizing Calculations
   ** Warning ** ProcessScheduleInput: Schedule:Constant="ALWAYS ON DISCRETE", Schedule Type Limits Name="ONOFF" not found -- will not be validated
   ** Warning ** Foundation:Kiva="KIVA FOUNDATION", no Interior Horizontal Insulation Material Name defined
   **   ~~~   ** Interior Horizontal Insulation Depth will not be used.
   ** Warning ** CheckUsedConstructions: There are 15 nominally unused constructions in input.
   **   ~~~   ** Each Unused construction is shown.
   ************* Construction=INTERIOR FLOOR
   ************* Construction=INTERIOR WINDOW
   ************* Construction=EXTERIOR DOOR
   ************* Construction=INTERIOR DOOR
   ************* Construction=GABLE CONSTRUCTION
   ************* Construction=CRAWL_FLOOR
   ************* Construction=INSULATED PIPE
   ************* Construction=PLAIN PIPE
   ************* Construction=TDD PIPE
   ************* Construction=TDD DOME
   ************* Construction=TDD DIFFUSER
   ************* Construction=CRAWL WALL
   ************* Construction=CEILING-FLOOR-LAYER
   ************* Construction=SLAB CONSTRUCTION W FULL R10 INSULATION
   ************* Construction=SLAB CONSTRUCTION W FULL R5 INSULATION
   ** Warning ** GetDXCoils: Coil:Heating:DX:SingleSpeed="DX_HEATING_COIL" curve values
   **   ~~~   ** ... Defrost Energy Input Ratio Function of Temperature Curve Name = DEFROSTEIR output is not equal to 1.0 (+ or - 10%) at rated conditions.
   **   ~~~   ** ... Curve output at rated conditions = 0.152
   ************* Beginning System Sizing Calculations
   ************* Beginning Plant Sizing Calculations
   ** Warning ** SizeDXCoil Coil:Cooling:DX:SingleSpeed DX_COOLING_COIL
   **   ~~~   ** ...Gross Rated Total Cooling Capacity [W] will be limited by the maximum rated volume flow per rated total capacity ratio.
   **   ~~~   ** ...DX coil volume flow rate ( m3/s ) = 0.340234
   **   ~~~   ** ...Requested capacity ( W ) = 5623.181
   **   ~~~   ** ...Requested flow/capacity ratio ( m3/s/W ) = 6.050E-005
   **   ~~~   ** ...Maximum flow/capacity ratio ( m3/s/W ) = 6.041E-005
   **   ~~~   ** ...Adjusted capacity ( W ) = 5632.087
   ** Warning ** SizeDXCoil Coil:Heating:DX:SingleSpeed DX_HEATING_COIL
   **   ~~~   ** ...Gross Rated Heating Capacity [W] will be limited by the maximum rated volume flow per rated total capacity ratio.
   **   ~~~   ** ...DX coil volume flow rate ( m3/s ) = 0.340234
   **   ~~~   ** ...Requested capacity ( W ) = 5632.087
   **   ~~~   ** ...Requested flow/capacity ratio ( m3/s/W ) = 6.041E-005
   **   ~~~   ** ...Maximum flow/capacity ratio ( m3/s/W ) = 6.041E-005
   **   ~~~   ** ...Adjusted capacity ( W ) = 5632.087
   ** Warning ** Coil:WaterHeating:AirToWaterHeatPump:Wrapped "HEAT PUMP WATER HEATER EVAPORATOR": Rated air volume flow rate per watt of rated total water heating capacity is out of range
   **   ~~~   ** Min Rated Vol Flow Per Watt=[4.027E-005], Rated Vol Flow Per Watt=[1.510E-004], Max Rated Vol Flow Per Watt=[8.056E-005]. See Input-Output Reference Manual for valid range.
   ************* SizeFan: : Potential issue with equipment sizing for Fan:OnOff HEAT PUMP WATER HEATER FAN
   **   ~~~   ** User-Specified Maximum Flow Rate [m3/s] = 0.22653
   **   ~~~   ** differs from Design Size Maximum Flow Rate [m3/s] = 7.55250E-002
   **   ~~~   ** This may, or may not, indicate mismatched component sizes.
   **   ~~~   ** Verify that the value entered is intended and is consistent with other components.
   ** Warning ** Water heater = WATER HEATER TANK:  Recovery Efficiency and Energy Factor could not be calculated during the test for standard ratings
   **   ~~~   ** Setpoint was never recovered and/or heater never turned on
   ** Warning ** Check input. Pump nominal power or motor efficiency is set to 0, for pump=MAINS PRESSURE
   ** Warning ** Output:Meter: invalid Key Name="ELECTRIC_RANGE:INTERIOREQUIPMENT:ELECTRICITY" - not found.
   ** Warning ** Output:Meter: invalid Key Name="ELECTRIC_DRYER:INTERIOREQUIPMENT:ELECTRICITY" - not found.
   ** Warning ** Output:Meter: invalid Key Name="HEATRECOVERY:ELECTRICITY" - not found.
   ** Warning ** Output:Meter: invalid Key Name="HEATING:NATURALGAS" - not found.
   ** Warning ** Output:Meter: invalid Key Name="WATERSYSTEMS:NATURALGAS" - not found.
   ** Warning ** Output:Meter: invalid Key Name="PROPANE:FACILITY" - not found.
   ** Warning ** Output:Meter: invalid Key Name="HEATING:PROPANE" - not found.
   ************* Testing Individual Branch Integrity
   ************* All Branches passed integrity testing
   ************* Testing Individual Supply Air Path Integrity
   ************* All Supply Air Paths passed integrity testing
   ************* Testing Individual Return Air Path Integrity
   ************* All Return Air Paths passed integrity testing
   ************* No node connection errors were found.
   ************* Beginning Simulation
   ** Warning ** AirflowNetwork::Solver::validate_distribution: Heat pump water heater is simulated along with an AirflowNetwork but is not included in the AirflowNetwork.
   ** Warning ** CalcEquipmentFlowRates: "TOTAL HOT WATER LOAD" - Target water temperature is greater than the hot water temperature by (8.32E-002 C)
   **   ~~~   **  Environment=EXTREME_WINTER, at Simulation time=12/22 03:45 - 04:00
   **   ~~~   ** ...target water temperature     = 53.33 C
   **   ~~~   ** ...hot water temperature        = 53.25 C
   **   ~~~   ** ...Target water temperature should be less than or equal to the hot water temperature. Verify temperature setpoints and schedules.
   ** Warning ** SimHVAC: Maximum iterations (20) exceeded for all HVAC loops, at ANNUAL, 03/14 16:15 - 16:20
   **   ~~~   ** The solution for one or more of the Air Loop HVAC systems did not appear to converge
   **   ~~~   ** Air System Named = CENTRAL SYSTEM did not converge for mass flow rate
   **   ~~~   ** Check values should be zero. Most Recent values listed first.
   **   ~~~   ** Demand-to-Supply interface mass flow rate check value iteration history trace: 7.080454E-002,7.080454E-002,7.080454E-002,7.080454E-002,7.080454E-002,7.080454E-002,7.080454E-002,7.080454E-002,7.080454E-002,7.080454E-002,
   **   ~~~   ** Supply-to-demand interface deck 1 mass flow rate check value iteration history trace: 7.080454E-002,7.080454E-002,7.080454E-002,7.080454E-002,7.080454E-002,7.080454E-002,7.080454E-002,7.080454E-002,7.080454E-002,7.080454E-002,
   **   ~~~   ** Air System Named = CENTRAL SYSTEM did not converge for energy
   **   ~~~   ** Check values should be zero. Most Recent values listed first.
   **   ~~~   ** Demand-to-Supply interface energy check value iteration history trace: 1399.293338,1399.293338,1399.293338,1399.293338,1399.293338,1399.293338,1399.293338,1399.293338,1399.293338,1399.293338,
   **   ~~~   ** Supply-to-demand interface deck 1 energy check value iteration history trace: 2171.954282,2171.954282,2171.954282,2171.954282,2171.954282,2171.954282,2171.954281,2171.954281,2171.954281,2171.954281,
   ** Warning ** SimHVAC: Maximum iterations (20) exceeded for all HVAC loops, at ANNUAL, 03/18 09:33 - 09:36
   **   ~~~   ** The solution for one or more of the Air Loop HVAC systems did not appear to converge
   **   ~~~   ** Air System Named = CENTRAL SYSTEM did not converge for mass flow rate
   **   ~~~   ** Check values should be zero. Most Recent values listed first.
   **   ~~~   ** Demand-to-Supply interface mass flow rate check value iteration history trace: 6.646872E-002,6.646872E-002,6.646872E-002,6.646872E-002,6.646872E-002,6.646872E-002,6.646872E-002,6.646872E-002,6.646872E-002,6.646872E-002,
   **   ~~~   ** Supply-to-demand interface deck 1 mass flow rate check value iteration history trace: 6.646872E-002,6.646872E-002,6.646872E-002,6.646872E-002,6.646872E-002,6.646872E-002,6.646872E-002,6.646872E-002,6.646872E-002,6.646872E-002,
   **   ~~~   ** Air System Named = CENTRAL SYSTEM did not converge for energy
   **   ~~~   ** Check values should be zero. Most Recent values listed first.
   **   ~~~   ** Demand-to-Supply interface energy check value iteration history trace: 1311.048733,1311.048733,1311.048733,1311.048733,1311.048733,1311.048733,1311.048733,1311.048733,1311.048733,1311.048733,
   **   ~~~   ** Supply-to-demand interface deck 1 energy check value iteration history trace: 2374.622585,2374.622585,2374.622585,2374.622585,2374.622584,2374.622584,2374.622584,2374.622584,2374.622584,2374.622584,
   ** Warning ** SimHVAC: Maximum iterations (20) exceeded for all HVAC loops, at ANNUAL, 04/01 19:30 - 19:45
   **   ~~~   ** The solution for one or more of the Air Loop HVAC systems did not appear to converge
   **   ~~~   ** Air System Named = CENTRAL SYSTEM did not converge for mass flow rate
   **   ~~~   ** Check values should be zero. Most Recent values listed first.
   **   ~~~   ** Demand-to-Supply interface mass flow rate check value iteration history trace: 5.261486E-002,5.261486E-002,5.261486E-002,5.261486E-002,5.261486E-002,5.261486E-002,5.261486E-002,5.261486E-002,5.261486E-002,5.261486E-002,
   **   ~~~   ** Supply-to-demand interface deck 1 mass flow rate check value iteration history trace: 5.261486E-002,5.261486E-002,5.261486E-002,5.261486E-002,5.261486E-002,5.261486E-002,5.261486E-002,5.261486E-002,5.261486E-002,5.261486E-002,
   **   ~~~   ** Air System Named = CENTRAL SYSTEM did not converge for energy
   **   ~~~   ** Check values should be zero. Most Recent values listed first.
   **   ~~~   ** Demand-to-Supply interface energy check value iteration history trace: 1030.278520,1030.278520,1030.278520,1030.278520,1030.278520,1030.278520,1030.278520,1030.278520,1030.278520,1030.278520,
   **   ~~~   ** Supply-to-demand interface deck 1 energy check value iteration history trace: 1728.381731,1728.381731,1728.381731,1728.381731,1728.381731,1728.381730,1728.381730,1728.381730,1728.381730,1728.381730,
   ** Warning ** SimHVAC: Maximum iterations (20) exceeded for all HVAC loops, at ANNUAL, 04/17 07:00 - 07:15
   **   ~~~   ** The solution for one or more of the Air Loop HVAC systems did not appear to converge
   **   ~~~   ** Air System Named = CENTRAL SYSTEM did not converge for mass flow rate
   **   ~~~   ** Check values should be zero. Most Recent values listed first.
   **   ~~~   ** Demand-to-Supply interface mass flow rate check value iteration history trace: 7.303741E-002,7.303741E-002,7.303741E-002,7.303741E-002,7.303741E-002,7.303741E-002,7.303741E-002,7.303741E-002,7.303741E-002,7.303741E-002,
   **   ~~~   ** Supply-to-demand interface deck 1 mass flow rate check value iteration history trace: 7.303741E-002,7.303741E-002,7.303741E-002,7.303741E-002,7.303741E-002,7.303741E-002,7.303741E-002,7.303741E-002,7.303741E-002,7.303741E-002,
   **   ~~~   ** Air System Named = CENTRAL SYSTEM did not converge for energy
   **   ~~~   ** Check values should be zero. Most Recent values listed first.
   **   ~~~   ** Demand-to-Supply interface energy check value iteration history trace: 1447.275816,1447.275816,1447.275816,1447.275815,1447.275815,1447.275815,1447.275815,1447.275815,1447.275815,1447.275815,
   **   ~~~   ** Supply-to-demand interface deck 1 energy check value iteration history trace: 2512.052205,2512.052205,2512.052204,2512.052204,2512.052204,2512.052204,2512.052204,2512.052204,2512.052204,2512.052204,
   ** Warning ** SimHVAC: Maximum iterations (20) exceeded for all HVAC loops, at ANNUAL, 05/11 06:15 - 06:30
   **   ~~~   ** The solution for one or more of the Air Loop HVAC systems did not appear to converge
   **   ~~~   ** Air System Named = CENTRAL SYSTEM did not converge for mass flow rate
   **   ~~~   ** Check values should be zero. Most Recent values listed first.
   **   ~~~   ** Demand-to-Supply interface mass flow rate check value iteration history trace: 6.024855E-002,6.024855E-002,6.024855E-002,6.024855E-002,6.024855E-002,6.024855E-002,6.024855E-002,6.024855E-002,6.024855E-002,6.024855E-002,
   **   ~~~   ** Supply-to-demand interface deck 1 mass flow rate check value iteration history trace: 6.024855E-002,6.024855E-002,6.024855E-002,6.024855E-002,6.024855E-002,6.024855E-002,6.024855E-002,6.024855E-002,6.024855E-002,6.024855E-002,
   **   ~~~   ** Air System Named = CENTRAL SYSTEM did not converge for energy
   **   ~~~   ** Check values should be zero. Most Recent values listed first.
   **   ~~~   ** Demand-to-Supply interface energy check value iteration history trace: 1194.112551,1194.112551,1194.112551,1194.112551,1194.112551,1194.112550,1194.112550,1194.112550,1194.112550,1194.112550,
   **   ~~~   ** Supply-to-demand interface deck 1 energy check value iteration history trace: 2030.073062,2030.073062,2030.073062,2030.073061,2030.073061,2030.073061,2030.073061,2030.073061,2030.073061,2030.073061,
   ** Warning ** SimHVAC: Maximum iterations (20) exceeded for all HVAC loops, at ANNUAL, 09/25 07:56 - 08:00
   **   ~~~   ** The solution for one or more of the Air Loop HVAC systems did not appear to converge
   **   ~~~   ** Air System Named = CENTRAL SYSTEM did not converge for mass flow rate
   **   ~~~   ** Check values should be zero. Most Recent values listed first.
   **   ~~~   ** Demand-to-Supply interface mass flow rate check value iteration history trace: 8.773062E-002,8.773062E-002,8.773062E-002,8.773062E-002,8.773062E-002,8.773062E-002,8.773062E-002,8.773062E-002,8.773062E-002,8.773062E-002,
   **   ~~~   ** Supply-to-demand interface deck 1 mass flow rate check value iteration history trace: 8.773062E-002,8.773062E-002,8.773062E-002,8.773062E-002,8.773062E-002,8.773062E-002,8.773062E-002,8.773062E-002,8.773062E-002,8.773062E-002,
   **   ~~~   ** Air System Named = CENTRAL SYSTEM did not converge for energy
   **   ~~~   ** Check values should be zero. Most Recent values listed first.
   **   ~~~   ** Demand-to-Supply interface energy check value iteration history trace: 2066.246358,2066.246359,2066.246360,2066.246360,2066.246361,2066.246362,2066.246362,2066.246363,2066.246364,2066.246364,
   **   ~~~   ** Supply-to-demand interface deck 1 energy check value iteration history trace: 1087.875919,1087.875919,1087.875920,1087.875920,1087.875920,1087.875921,1087.875921,1087.875921,1087.875922,1087.875922,
   ** Warning ** SimHVAC: Maximum iterations (20) exceeded for all HVAC loops, at ANNUAL, 10/07 06:45 - 07:00
   **   ~~~   ** The solution for one or more of the Air Loop HVAC systems did not appear to converge
   **   ~~~   ** Air System Named = CENTRAL SYSTEM did not converge for mass flow rate
   **   ~~~   ** Check values should be zero. Most Recent values listed first.
   **   ~~~   ** Demand-to-Supply interface mass flow rate check value iteration history trace: 4.616854E-002,4.616854E-002,4.616854E-002,4.616854E-002,4.616854E-002,4.616854E-002,4.616854E-002,4.616854E-002,4.616854E-002,4.616854E-002,
   **   ~~~   ** Supply-to-demand interface deck 1 mass flow rate check value iteration history trace: 4.616854E-002,4.616854E-002,4.616854E-002,4.616854E-002,4.616854E-002,4.616854E-002,4.616854E-002,4.616854E-002,4.616854E-002,4.616854E-002,
   **   ~~~   ** Air System Named = CENTRAL SYSTEM did not converge for energy
   **   ~~~   ** Check values should be zero. Most Recent values listed first.
   **   ~~~   ** Demand-to-Supply interface energy check value iteration history trace: 906.518117,906.518117,906.518117,906.518117,906.518117,906.518117,906.518117,906.518117,906.518117,906.518117,
   **   ~~~   ** Supply-to-demand interface deck 1 energy check value iteration history trace: 1639.569942,1639.569942,1639.569942,1639.569942,1639.569942,1639.569942,1639.569942,1639.569942,1639.569942,1639.569942,
   ** Warning ** SimHVAC: Maximum iterations (20) exceeded for all HVAC loops, at ANNUAL, 10/23 08:00 - 08:02
   **   ~~~   ** The solution for one or more of the Air Loop HVAC systems did not appear to converge
   **   ~~~   ** Air System Named = CENTRAL SYSTEM did not converge for mass flow rate
   **   ~~~   ** Check values should be zero. Most Recent values listed first.
   **   ~~~   ** Demand-to-Supply interface mass flow rate check value iteration history trace: 9.432912E-002,9.432912E-002,9.432912E-002,9.432912E-002,9.432912E-002,9.432912E-002,9.432912E-002,9.432912E-002,9.432912E-002,9.432912E-002,
   **   ~~~   ** Supply-to-demand interface deck 1 mass flow rate check value iteration history trace: 9.432912E-002,9.432912E-002,9.432912E-002,9.432912E-002,9.432912E-002,9.432912E-002,9.432912E-002,9.432912E-002,9.432912E-002,9.432912E-002,
   **   ~~~   ** Air System Named = CENTRAL SYSTEM did not converge for energy
   **   ~~~   ** Check values should be zero. Most Recent values listed first.
   **   ~~~   ** Demand-to-Supply interface energy check value iteration history trace: 1869.103827,1869.103827,1869.103827,1869.103827,1869.103827,1869.103827,1869.103826,1869.103826,1869.103826,1869.103826,
   **   ~~~   ** Supply-to-demand interface deck 1 energy check value iteration history trace: 2823.993472,2823.993471,2823.993471,2823.993471,2823.993471,2823.993471,2823.993470,2823.993470,2823.993470,2823.993470,
   ** Warning ** SimHVAC: Maximum iterations (20) exceeded for all HVAC loops, at ANNUAL, 11/01 17:53 - 18:00
   **   ~~~   ** The solution for one or more of the Air Loop HVAC systems did not appear to converge
   **   ~~~   ** Air System Named = CENTRAL SYSTEM did not converge for mass flow rate
   **   ~~~   ** Check values should be zero. Most Recent values listed first.
   **   ~~~   ** Demand-to-Supply interface mass flow rate check value iteration history trace: 5.742444E-002,5.742444E-002,5.742444E-002,5.742444E-002,5.742444E-002,5.742444E-002,5.742444E-002,5.742444E-002,5.742444E-002,5.742444E-002,
   **   ~~~   ** Supply-to-demand interface deck 1 mass flow rate check value iteration history trace: 5.742444E-002,5.742444E-002,5.742444E-002,5.742444E-002,5.742444E-002,5.742444E-002,5.742444E-002,5.742444E-002,5.742444E-002,5.742444E-002,
   **   ~~~   ** Air System Named = CENTRAL SYSTEM did not converge for energy
   **   ~~~   ** Check values should be zero. Most Recent values listed first.
   **   ~~~   ** Demand-to-Supply interface energy check value iteration history trace: 1132.480645,1132.480645,1132.480645,1132.480645,1132.480645,1132.480645,1132.480645,1132.480645,1132.480645,1132.480644,
   **   ~~~   ** Supply-to-demand interface deck 1 energy check value iteration history trace: 1896.699311,1896.699311,1896.699311,1896.699311,1896.699311,1896.699311,1896.699311,1896.699310,1896.699310,1896.699310,
   ** Warning ** SimHVAC: Maximum iterations (20) exceeded for all HVAC loops, at ANNUAL, 11/01 18:00 - 18:15
   **   ~~~   ** The solution for one or more of the Air Loop HVAC systems did not appear to converge
   **   ~~~   ** Air System Named = CENTRAL SYSTEM did not converge for mass flow rate
   **   ~~~   ** Check values should be zero. Most Recent values listed first.
   **   ~~~   ** Demand-to-Supply interface mass flow rate check value iteration history trace: 1.818242E-002,1.818242E-002,1.818242E-002,1.818242E-002,1.818242E-002,1.818242E-002,1.818242E-002,1.818242E-002,1.818242E-002,1.818242E-002,
   **   ~~~   ** Supply-to-demand interface deck 1 mass flow rate check value iteration history trace: 1.818242E-002,1.818242E-002,1.818242E-002,1.818242E-002,1.818242E-002,1.818242E-002,1.818242E-002,1.818242E-002,1.818242E-002,1.818242E-002,
   **   ~~~   ** Air System Named = CENTRAL SYSTEM did not converge for energy
   **   ~~~   ** Check values should be zero. Most Recent values listed first.
   **   ~~~   ** Demand-to-Supply interface energy check value iteration history trace: 355.606102,355.606102,355.606102,355.606102,355.606102,355.606102,355.606102,355.606102,355.606102,355.606102,
   **   ~~~   ** Supply-to-demand interface deck 1 energy check value iteration history trace: 597.075851,597.075851,597.075851,597.075851,597.075851,597.075851,597.075851,597.075851,597.075851,597.075851,
   ** Warning ** SimHVAC: Maximum iterations (20) exceeded for all HVAC loops, at ANNUAL, 11/10 17:00 - 17:15
   **   ~~~   ** The solution for one or more of the Air Loop HVAC systems did not appear to converge
   **   ~~~   ** Air System Named = CENTRAL SYSTEM did not converge for mass flow rate
   **   ~~~   ** Check values should be zero. Most Recent values listed first.
   **   ~~~   ** Demand-to-Supply interface mass flow rate check value iteration history trace: 6.299632E-002,6.299632E-002,6.299632E-002,6.299632E-002,6.299632E-002,6.299632E-002,6.299632E-002,6.299632E-002,6.299632E-002,6.299632E-002,
   **   ~~~   ** Supply-to-demand interface deck 1 mass flow rate check value iteration history trace: 6.299632E-002,6.299632E-002,6.299632E-002,6.299632E-002,6.299632E-002,6.299632E-002,6.299632E-002,6.299632E-002,6.299632E-002,6.299632E-002,
   **   ~~~   ** Air System Named = CENTRAL SYSTEM did not converge for energy
   **   ~~~   ** Check values should be zero. Most Recent values listed first.
   **   ~~~   ** Demand-to-Supply interface energy check value iteration history trace: 1246.560987,1246.560987,1246.560987,1246.560987,1246.560987,1246.560987,1246.560987,1246.560987,1246.560987,1246.560987,
   **   ~~~   ** Supply-to-demand interface deck 1 energy check value iteration history trace: 2134.172949,2134.172949,2134.172949,2134.172949,2134.172949,2134.172948,2134.172948,2134.172948,2134.172948,2134.172948,
   ** Warning ** SimHVAC: Maximum iterations (20) exceeded for all HVAC loops, at ANNUAL, 11/21 16:00 - 16:15
   **   ~~~   ** The solution for one or more of the Air Loop HVAC systems did not appear to converge
   **   ~~~   ** Air System Named = CENTRAL SYSTEM did not converge for mass flow rate
   **   ~~~   ** Check values should be zero. Most Recent values listed first.
   **   ~~~   ** Demand-to-Supply interface mass flow rate check value iteration history trace: 7.593175E-002,7.593175E-002,7.593175E-002,7.593175E-002,7.593175E-002,7.593175E-002,7.593175E-002,7.593175E-002,7.593175E-002,7.593175E-002,
   **   ~~~   ** Supply-to-demand interface deck 1 mass flow rate check value iteration history trace: 7.593175E-002,7.593175E-002,7.593175E-002,7.593175E-002,7.593175E-002,7.593175E-002,7.593175E-002,7.593175E-002,7.593175E-002,7.593175E-002,
   **   ~~~   ** Air System Named = CENTRAL SYSTEM did not converge for energy
   **   ~~~   ** Check values should be zero. Most Recent values listed first.
   **   ~~~   ** Demand-to-Supply interface energy check value iteration history trace: 1503.946323,1503.946323,1503.946323,1503.946323,1503.946323,1503.946323,1503.946323,1503.946323,1503.946322,1503.946322,
   **   ~~~   ** Supply-to-demand interface deck 1 energy check value iteration history trace: 2265.270844,2265.270844,2265.270844,2265.270843,2265.270843,2265.270843,2265.270843,2265.270843,2265.270843,2265.270842,
   ************* Simulation Error Summary *************
   ** Warning ** The following Report Variables were requested but not generated -- check.rdd file
   **   ~~~   ** Either the IDF did not contain these elements, the variable name is misspelled,
   **   ~~~   ** or the requested variable is an advanced output which requires Output : Diagnostics, DisplayAdvancedReportVariables;
   ************* Key=*, VarName=BASEBOARD TOTAL HEATING ENERGY, Frequency=
   ************* Key=*, VarName=WATER HEATER NATURALGAS ENERGY, Frequency=
   ************* Key=*, VarName=COOLING COIL TOTAL HEATING ENERGY, Frequency=
   ************* There are 34 unused schedules in input.
   ************* There are 388 unused week schedules in input.
   ************* There are 396 unused day schedules in input.
   ************* Use Output:Diagnostics,DisplayUnusedSchedules; to see them.
   *************
   ************* ===== Recurring Error Summary =====
   ************* The following recurring error messages occurred.
   *************
   *************  ** Warning ** "TOTAL HOT WATER LOAD" - Target water temperature should be less than or equal to the hot water temperature error continues...
   *************  **   ~~~   **   This error occurred 55301 total times;
   *************  **   ~~~   **   during Warmup 0 times;
   *************  **   ~~~   **   during Sizing 0 times.
   *************  **   ~~~   **   Max=6.401343  Min=8.400122E-004
   *************
   *************
   ************* ===== Final Error Summary =====
   ************* The following error categories occurred.  Consider correcting or noting.
   ************* Nominally Unused Constructions
   ************* ..The nominally unused constructions warning is provided to alert you to potential conditions that can cause
   ************* ..extra time during simulation. Each construction is calculated by the algorithm indicated in the HeatBalanceAlgorithm
   ************* ..object. You may remove the constructions indicated (when you use the DisplayExtraWarnings option).
   *************
   ************* EnergyPlus Warmup Error Summary. During Warmup: 1 Warning; 0 Severe Errors.
   ************* EnergyPlus Sizing Error Summary. During Sizing: 4 Warning; 0 Severe Errors.
   ************* EnergyPlus Completed Successfully-- 55332 Warning; 0 Severe Errors; Elapsed Time=00hr 01min 26.50sec
