Program Version,EnergyPlus, Version 22.2.0-c249759bad, YMD=2023.09.01 18:49,
   ************* Beginning Zone Sizing Calculations
   ** Warning ** ProcessScheduleInput: Schedule:Constant="ALWAYS ON DISCRETE", Schedule Type Limits Name="ONOFF" not found -- will not be validated
   ** Warning ** Foundation:Kiva="KIVA FOUNDATION", no Interior Horizontal Insulation Material Name defined
   **   ~~~   ** Interior Horizontal Insulation Depth will not be used.
   ** Warning ** CheckUsedConstructions: There are 15 nominally unused constructions in input.
   **   ~~~   ** Each Unused construction is shown.
   ************* Construction=INTERIOR FLOOR
   ************* Construction=INTERIOR WINDOW
   ************* Construction=EXTERIOR DOOR
   ************* Construction=INTERIOR DOOR
   ************* Construction=GABLE CONSTRUCTION
   ************* Construction=CRAWL_FLOOR
   ************* Construction=INSULATED PIPE
   ************* Construction=PLAIN PIPE
   ************* Construction=TDD PIPE
   ************* Construction=TDD DOME
   ************* Construction=TDD DIFFUSER
   ************* Construction=CRAWL WALL
   ************* Construction=CEILING-FLOOR-LAYER
   ************* Construction=SLAB CONSTRUCTION W FULL R10 INSULATION
   ************* Construction=SLAB CONSTRUCTION W FULL R5 INSULATION
   ** Warning ** GetDXCoils: Coil:Heating:DX:SingleSpeed="DX_HEATING_COIL" curve values
   **   ~~~   ** ... Defrost Energy Input Ratio Function of Temperature Curve Name = DEFROSTEIR output is not equal to 1.0 (+ or - 10%) at rated conditions.
   **   ~~~   ** ... Curve output at rated conditions = 0.152
   ************* Beginning System Sizing Calculations
   ************* Beginning Plant Sizing Calculations
   ** Warning ** SizeDXCoil Coil:Cooling:DX:SingleSpeed DX_COOLING_COIL
   **   ~~~   ** ...Gross Rated Total Cooling Capacity [W] will be limited by the maximum rated volume flow per rated total capacity ratio.
   **   ~~~   ** ...DX coil volume flow rate ( m3/s ) = 0.471042
   **   ~~~   ** ...Requested capacity ( W ) = 7430.933
   **   ~~~   ** ...Requested flow/capacity ratio ( m3/s/W ) = 6.338E-005
   **   ~~~   ** ...Maximum flow/capacity ratio ( m3/s/W ) = 6.041E-005
   **   ~~~   ** ...Adjusted capacity ( W ) = 7797.424
   ** Warning ** Coil:WaterHeating:AirToWaterHeatPump:Wrapped "HEAT PUMP WATER HEATER EVAPORATOR": Rated air volume flow rate per watt of rated total water heating capacity is out of range
   **   ~~~   ** Min Rated Vol Flow Per Watt=[4.027E-005], Rated Vol Flow Per Watt=[1.510E-004], Max Rated Vol Flow Per Watt=[8.056E-005]. See Input-Output Reference Manual for valid range.
   ************* SizeFan: : Potential issue with equipment sizing for Fan:OnOff HEAT PUMP WATER HEATER FAN
   **   ~~~   ** User-Specified Maximum Flow Rate [m3/s] = 0.22653
   **   ~~~   ** differs from Design Size Maximum Flow Rate [m3/s] = 7.55250E-002
   **   ~~~   ** This may, or may not, indicate mismatched component sizes.
   **   ~~~   ** Verify that the value entered is intended and is consistent with other components.
   ** Warning ** Water heater = WATER HEATER TANK:  Recovery Efficiency and Energy Factor could not be calculated during the test for standard ratings
   **   ~~~   ** Setpoint was never recovered and/or heater never turned on
   ** Warning ** Check input. Pump nominal power or motor efficiency is set to 0, for pump=MAINS PRESSURE
   ** Warning ** Output:Meter: invalid Key Name="ELECTRIC_RANGE:INTERIOREQUIPMENT:ELECTRICITY" - not found.
   ** Warning ** Output:Meter: invalid Key Name="ELECTRIC_DRYER:INTERIOREQUIPMENT:ELECTRICITY" - not found.
   ** Warning ** Output:Meter: invalid Key Name="HEATRECOVERY:ELECTRICITY" - not found.
   ** Warning ** Output:Meter: invalid Key Name="HEATING:NATURALGAS" - not found.
   ** Warning ** Output:Meter: invalid Key Name="WATERSYSTEMS:NATURALGAS" - not found.
   ** Warning ** Output:Meter: invalid Key Name="PROPANE:FACILITY" - not found.
   ** Warning ** Output:Meter: invalid Key Name="HEATING:PROPANE" - not found.
   ************* Testing Individual Branch Integrity
   ************* All Branches passed integrity testing
   ************* Testing Individual Supply Air Path Integrity
   ************* All Supply Air Paths passed integrity testing
   ************* Testing Individual Return Air Path Integrity
   ************* All Return Air Paths passed integrity testing
   ************* No node connection errors were found.
   ************* Beginning Simulation
   ** Warning ** AirflowNetwork::Solver::validate_distribution: Heat pump water heater is simulated along with an AirflowNetwork but is not included in the AirflowNetwork.
   ** Warning ** CalcEquipmentFlowRates: "TOTAL HOT WATER LOAD" - Target water temperature is greater than the hot water temperature by (1.81 C)
   **   ~~~   **  Environment=EXTREME_WINTER, at Simulation time=12/22 03:45 - 04:00
   **   ~~~   ** ...target water temperature     = 53.33 C
   **   ~~~   ** ...hot water temperature        = 51.52 C
   **   ~~~   ** ...Target water temperature should be less than or equal to the hot water temperature. Verify temperature setpoints and schedules.
   ** Warning ** SimHVAC: Maximum iterations (20) exceeded for all HVAC loops, at ANNUAL, 01/02 09:00 - 09:02
   **   ~~~   ** The solution for one or more of the Air Loop HVAC systems did not appear to converge
   **   ~~~   ** Air System Named = CENTRAL SYSTEM did not converge for mass flow rate
   **   ~~~   ** Check values should be zero. Most Recent values listed first.
   **   ~~~   ** Demand-to-Supply interface mass flow rate check value iteration history trace: 7.150526E-002,7.150526E-002,7.150526E-002,7.150526E-002,7.150526E-002,7.150526E-002,7.150526E-002,7.150526E-002,7.150526E-002,7.150526E-002,
   **   ~~~   ** Supply-to-demand interface deck 1 mass flow rate check value iteration history trace: 7.150526E-002,7.150526E-002,7.150526E-002,7.150526E-002,7.150526E-002,7.150526E-002,7.150526E-002,7.150526E-002,7.150526E-002,7.150526E-002,
   **   ~~~   ** Air System Named = CENTRAL SYSTEM did not converge for energy
   **   ~~~   ** Check values should be zero. Most Recent values listed first.
   **   ~~~   ** Demand-to-Supply interface energy check value iteration history trace: 1416.970050,1416.970050,1416.970050,1416.970050,1416.970050,1416.970050,1416.970050,1416.970050,1416.970049,1416.970049,
   **   ~~~   ** Supply-to-demand interface deck 1 energy check value iteration history trace: 2204.247539,2204.247539,2204.247539,2204.247538,2204.247538,2204.247538,2204.247538,2204.247538,2204.247538,2204.247538,
   ** Warning ** SimHVAC: Maximum iterations (20) exceeded for all HVAC loops, at ANNUAL, 01/17 12:15 - 12:20
   **   ~~~   ** The solution for one or more of the Air Loop HVAC systems did not appear to converge
   **   ~~~   ** Air System Named = CENTRAL SYSTEM did not converge for mass flow rate
   **   ~~~   ** Check values should be zero. Most Recent values listed first.
   **   ~~~   ** Demand-to-Supply interface mass flow rate check value iteration history trace: 6.195631E-002,6.195631E-002,6.195631E-002,6.195631E-002,6.195631E-002,6.195631E-002,6.195631E-002,6.195631E-002,6.195631E-002,6.195631E-002,
   **   ~~~   ** Supply-to-demand interface deck 1 mass flow rate check value iteration history trace: 6.195631E-002,6.195631E-002,6.195631E-002,6.195631E-002,6.195631E-002,6.195631E-002,6.195631E-002,6.195631E-002,6.195631E-002,6.195631E-002,
   **   ~~~   ** Air System Named = CENTRAL SYSTEM did not converge for energy
   **   ~~~   ** Check values should be zero. Most Recent values listed first.
   **   ~~~   ** Demand-to-Supply interface energy check value iteration history trace: 1227.793877,1227.793877,1227.793877,1227.793877,1227.793877,1227.793877,1227.793877,1227.793877,1227.793877,1227.793876,
   **   ~~~   ** Supply-to-demand interface deck 1 energy check value iteration history trace: 2113.964487,2113.964487,2113.964487,2113.964486,2113.964486,2113.964486,2113.964486,2113.964486,2113.964486,2113.964486,
   ** Warning ** SimHVAC: Maximum iterations (20) exceeded for all HVAC loops, at ANNUAL, 02/08 08:49 - 08:52
   **   ~~~   ** The solution for one or more of the Air Loop HVAC systems did not appear to converge
   **   ~~~   ** Air System Named = CENTRAL SYSTEM did not converge for mass flow rate
   **   ~~~   ** Check values should be zero. Most Recent values listed first.
   **   ~~~   ** Demand-to-Supply interface mass flow rate check value iteration history trace: 6.458735E-002,6.458735E-002,6.458735E-002,6.458735E-002,6.458735E-002,6.458735E-002,6.458735E-002,6.458735E-002,6.458735E-002,6.458735E-002,
   **   ~~~   ** Supply-to-demand interface deck 1 mass flow rate check value iteration history trace: 6.458735E-002,6.458735E-002,6.458735E-002,6.458735E-002,6.458735E-002,6.458735E-002,6.458735E-002,6.458735E-002,6.458735E-002,6.458735E-002,
   **   ~~~   ** Air System Named = CENTRAL SYSTEM did not converge for energy
   **   ~~~   ** Check values should be zero. Most Recent values listed first.
   **   ~~~   ** Demand-to-Supply interface energy check value iteration history trace: 1273.302467,1273.302467,1273.302467,1273.302467,1273.302466,1273.302466,1273.302466,1273.302466,1273.302466,1273.302466,
   **   ~~~   ** Supply-to-demand interface deck 1 energy check value iteration history trace: 2255.154777,2255.154776,2255.154776,2255.154776,2255.154776,2255.154776,2255.154776,2255.154776,2255.154776,2255.154776,
   ** Warning ** SimHVAC: Maximum iterations (20) exceeded for all HVAC loops, at ANNUAL, 04/05 07:48 - 07:49
   **   ~~~   ** The solution for one or more of the Air Loop HVAC systems did not appear to converge
   **   ~~~   ** Air System Named = CENTRAL SYSTEM did not converge for mass flow rate
   **   ~~~   ** Check values should be zero. Most Recent values listed first.
   **   ~~~   ** Demand-to-Supply interface mass flow rate check value iteration history trace: 0.329981,0.329981,0.329981,0.329981,0.329981,0.329981,0.329981,0.329981,0.329981,0.329981,
   **   ~~~   ** Supply-to-demand interface deck 1 mass flow rate check value iteration history trace: 0.329981,0.329981,0.329981,0.329981,0.329981,0.329981,0.329981,0.329981,0.329981,0.329981,
   **   ~~~   ** Air System Named = CENTRAL SYSTEM did not converge for energy
   **   ~~~   ** Check values should be zero. Most Recent values listed first.
   **   ~~~   ** Demand-to-Supply interface energy check value iteration history trace: 7799.642669,7799.642671,7799.642672,7799.642674,7799.642676,7799.642677,7799.642679,7799.642681,7799.642682,7799.642684,
   **   ~~~   ** Supply-to-demand interface deck 1 energy check value iteration history trace: 3658.294649,3658.294649,3658.294650,3658.294651,3658.294652,3658.294653,3658.294653,3658.294654,3658.294655,3658.294656,
   ** Warning ** SimHVAC: Maximum iterations (20) exceeded for all HVAC loops, at ANNUAL, 04/05 08:30 - 08:45
   **   ~~~   ** The solution for one or more of the Air Loop HVAC systems did not appear to converge
   **   ~~~   ** Air System Named = CENTRAL SYSTEM did not converge for mass flow rate
   **   ~~~   ** Check values should be zero. Most Recent values listed first.
   **   ~~~   ** Demand-to-Supply interface mass flow rate check value iteration history trace: 3.842257E-002,3.842257E-002,3.842257E-002,3.842257E-002,3.842257E-002,3.842257E-002,3.842257E-002,3.842257E-002,3.842257E-002,3.842257E-002,
   **   ~~~   ** Supply-to-demand interface deck 1 mass flow rate check value iteration history trace: 3.842257E-002,3.842257E-002,3.842257E-002,3.842257E-002,3.842257E-002,3.842257E-002,3.842257E-002,3.842257E-002,3.842257E-002,3.842257E-002,
   **   ~~~   ** Air System Named = CENTRAL SYSTEM did not converge for energy
   **   ~~~   ** Check values should be zero. Most Recent values listed first.
   **   ~~~   ** Demand-to-Supply interface energy check value iteration history trace: 905.571322,905.571323,905.571323,905.571323,905.571323,905.571323,905.571323,905.571324,905.571324,905.571324,
   **   ~~~   ** Supply-to-demand interface deck 1 energy check value iteration history trace: 419.881049,419.881049,419.881050,419.881050,419.881050,419.881050,419.881050,419.881050,419.881050,419.881050,
   ** Warning ** SimHVAC: Maximum iterations (20) exceeded for all HVAC loops, at ANNUAL, 04/07 13:28 - 13:30
   **   ~~~   ** The solution for one or more of the Air Loop HVAC systems did not appear to converge
   **   ~~~   ** Air System Named = CENTRAL SYSTEM did not converge for mass flow rate
   **   ~~~   ** Check values should be zero. Most Recent values listed first.
   **   ~~~   ** Demand-to-Supply interface mass flow rate check value iteration history trace: 0.327337,0.327337,0.327337,0.327337,0.327337,0.327337,0.327337,0.327337,0.327337,0.327337,
   **   ~~~   ** Supply-to-demand interface deck 1 mass flow rate check value iteration history trace: 0.327337,0.327337,0.327337,0.327337,0.327337,0.327337,0.327337,0.327337,0.327337,0.327337,
   **   ~~~   ** Air System Named = CENTRAL SYSTEM did not converge for energy
   **   ~~~   ** Check values should be zero. Most Recent values listed first.
   **   ~~~   ** Demand-to-Supply interface energy check value iteration history trace: 7821.385634,7821.385635,7821.385635,7821.385636,7821.385636,7821.385637,7821.385637,7821.385638,7821.385638,7821.385639,
   **   ~~~   ** Supply-to-demand interface deck 1 energy check value iteration history trace: 3352.778259,3352.778260,3352.778260,3352.778260,3352.778260,3352.778260,3352.778261,3352.778261,3352.778261,3352.778261,
   ** Warning ** SimHVAC: Maximum iterations (20) exceeded for all HVAC loops, at ANNUAL, 11/14 11:45 - 12:00
   **   ~~~   ** The solution for one or more of the Air Loop HVAC systems did not appear to converge
   **   ~~~   ** Air System Named = CENTRAL SYSTEM did not converge for energy
   **   ~~~   ** Check values should be zero. Most Recent values listed first.
   **   ~~~   ** Demand-to-Supply interface energy check value iteration history trace: 74.682638,74.682638,74.682638,74.682638,74.682638,74.682638,74.682638,74.682638,74.682638,74.682638,
   **   ~~~   ** Supply-to-demand interface deck 1 energy check value iteration history trace: 29.101697,29.101697,29.101697,29.101697,29.101697,29.101697,29.101697,29.101697,29.101697,29.101697,
   ** Warning ** SimHVAC: Maximum iterations (20) exceeded for all HVAC loops, at ANNUAL, 11/15 14:10 - 14:15
   **   ~~~   ** The solution for one or more of the Air Loop HVAC systems did not appear to converge
   **   ~~~   ** Air System Named = CENTRAL SYSTEM did not converge for mass flow rate
   **   ~~~   ** Check values should be zero. Most Recent values listed first.
   **   ~~~   ** Demand-to-Supply interface mass flow rate check value iteration history trace: 0.298216,0.298216,0.298216,0.298216,0.298216,0.298216,0.298216,0.298216,0.298216,0.298216,
   **   ~~~   ** Supply-to-demand interface deck 1 mass flow rate check value iteration history trace: 0.298216,0.298216,0.298216,0.298216,0.298216,0.298216,0.298216,0.298216,0.298216,0.298216,
   **   ~~~   ** Air System Named = CENTRAL SYSTEM did not converge for energy
   **   ~~~   ** Check values should be zero. Most Recent values listed first.
   **   ~~~   ** Demand-to-Supply interface energy check value iteration history trace: 7194.460364,7194.460365,7194.460366,7194.460367,7194.460368,7194.460369,7194.460370,7194.460370,7194.460371,7194.460372,
   **   ~~~   ** Supply-to-demand interface deck 1 energy check value iteration history trace: 3012.920824,3012.920824,3012.920824,3012.920825,3012.920825,3012.920825,3012.920826,3012.920826,3012.920826,3012.920827,
   ** Warning ** SimHVAC: Maximum iterations (20) exceeded for all HVAC loops, at ANNUAL, 11/28 21:45 - 22:00
   **   ~~~   ** The solution for one or more of the Air Loop HVAC systems did not appear to converge
   **   ~~~   ** Air System Named = CENTRAL SYSTEM did not converge for mass flow rate
   **   ~~~   ** Check values should be zero. Most Recent values listed first.
   **   ~~~   ** Demand-to-Supply interface mass flow rate check value iteration history trace: 8.499139E-002,8.499139E-002,8.499139E-002,8.499139E-002,8.499139E-002,8.499139E-002,8.499139E-002,8.499139E-002,8.499139E-002,8.499139E-002,
   **   ~~~   ** Supply-to-demand interface deck 1 mass flow rate check value iteration history trace: 8.499139E-002,8.499139E-002,8.499139E-002,8.499139E-002,8.499139E-002,8.499139E-002,8.499139E-002,8.499139E-002,8.499139E-002,8.499139E-002,
   **   ~~~   ** Air System Named = CENTRAL SYSTEM did not converge for energy
   **   ~~~   ** Check values should be zero. Most Recent values listed first.
   **   ~~~   ** Demand-to-Supply interface energy check value iteration history trace: 2021.454910,2021.454910,2021.454911,2021.454911,2021.454911,2021.454912,2021.454912,2021.454913,2021.454913,2021.454913,
   **   ~~~   ** Supply-to-demand interface deck 1 energy check value iteration history trace: 902.948182,902.948182,902.948182,902.948182,902.948182,902.948183,902.948183,902.948183,902.948183,902.948183,
   ** Warning ** SimHVAC: Maximum iterations (20) exceeded for all HVAC loops, at ANNUAL, 12/14 08:15 - 08:30
   **   ~~~   ** The solution for one or more of the Air Loop HVAC systems did not appear to converge
   **   ~~~   ** Air System Named = CENTRAL SYSTEM did not converge for mass flow rate
   **   ~~~   ** Check values should be zero. Most Recent values listed first.
   **   ~~~   ** Demand-to-Supply interface mass flow rate check value iteration history trace: 6.014710E-002,6.014710E-002,6.014710E-002,6.014710E-002,6.014710E-002,6.014710E-002,6.014710E-002,6.014710E-002,6.014710E-002,6.014710E-002,
   **   ~~~   ** Supply-to-demand interface deck 1 mass flow rate check value iteration history trace: 6.014710E-002,6.014710E-002,6.014710E-002,6.014710E-002,6.014710E-002,6.014710E-002,6.014710E-002,6.014710E-002,6.014710E-002,6.014710E-002,
   **   ~~~   ** Air System Named = CENTRAL SYSTEM did not converge for energy
   **   ~~~   ** Check values should be zero. Most Recent values listed first.
   **   ~~~   ** Demand-to-Supply interface energy check value iteration history trace: 1170.981587,1170.981587,1170.981587,1170.981587,1170.981587,1170.981587,1170.981587,1170.981587,1170.981587,1170.981587,
   **   ~~~   ** Supply-to-demand interface deck 1 energy check value iteration history trace: 2055.111253,2055.111253,2055.111253,2055.111252,2055.111252,2055.111252,2055.111252,2055.111252,2055.111252,2055.111252,
   ** Warning ** SimHVAC: Maximum iterations (20) exceeded for all HVAC loops, at ANNUAL, 12/27 08:30 - 08:45
   **   ~~~   ** The solution for one or more of the Air Loop HVAC systems did not appear to converge
   **   ~~~   ** Air System Named = CENTRAL SYSTEM did not converge for mass flow rate
   **   ~~~   ** Check values should be zero. Most Recent values listed first.
   **   ~~~   ** Demand-to-Supply interface mass flow rate check value iteration history trace: 7.404987E-002,7.404987E-002,7.404987E-002,7.404987E-002,7.404987E-002,7.404987E-002,7.404987E-002,7.404987E-002,7.404987E-002,7.404987E-002,
   **   ~~~   ** Supply-to-demand interface deck 1 mass flow rate check value iteration history trace: 7.404987E-002,7.404987E-002,7.404987E-002,7.404987E-002,7.404987E-002,7.404987E-002,7.404987E-002,7.404987E-002,7.404987E-002,7.404987E-002,
   **   ~~~   ** Air System Named = CENTRAL SYSTEM did not converge for energy
   **   ~~~   ** Check values should be zero. Most Recent values listed first.
   **   ~~~   ** Demand-to-Supply interface energy check value iteration history trace: 1467.318822,1467.318822,1467.318822,1467.318822,1467.318822,1467.318821,1467.318821,1467.318821,1467.318821,1467.318821,
   **   ~~~   ** Supply-to-demand interface deck 1 energy check value iteration history trace: 2487.053613,2487.053613,2487.053613,2487.053613,2487.053612,2487.053612,2487.053612,2487.053612,2487.053612,2487.053612,
   ************* Simulation Error Summary *************
   ** Warning ** The following Report Variables were requested but not generated -- check.rdd file
   **   ~~~   ** Either the IDF did not contain these elements, the variable name is misspelled,
   **   ~~~   ** or the requested variable is an advanced output which requires Output : Diagnostics, DisplayAdvancedReportVariables;
   ************* Key=*, VarName=BASEBOARD TOTAL HEATING ENERGY, Frequency=
   ************* Key=*, VarName=WATER HEATER NATURALGAS ENERGY, Frequency=
   ************* Key=*, VarName=COOLING COIL TOTAL HEATING ENERGY, Frequency=
   ************* There are 34 unused schedules in input.
   ************* There are 388 unused week schedules in input.
   ************* There are 396 unused day schedules in input.
   ************* Use Output:Diagnostics,DisplayUnusedSchedules; to see them.
   *************
   ************* ===== Recurring Error Summary =====
   ************* The following recurring error messages occurred.
   *************
   *************  ** Warning ** "TOTAL HOT WATER LOAD" - Target water temperature should be less than or equal to the hot water temperature error continues...
   *************  **   ~~~   **   This error occurred 82655 total times;
   *************  **   ~~~   **   during Warmup 0 times;
   *************  **   ~~~   **   during Sizing 0 times.
   *************  **   ~~~   **   Max=6.226428  Min=1.616560E-004
   *************
   *************
   ************* ===== Final Error Summary =====
   ************* The following error categories occurred.  Consider correcting or noting.
   ************* Nominally Unused Constructions
   ************* ..The nominally unused constructions warning is provided to alert you to potential conditions that can cause
   ************* ..extra time during simulation. Each construction is calculated by the algorithm indicated in the HeatBalanceAlgorithm
   ************* ..object. You may remove the constructions indicated (when you use the DisplayExtraWarnings option).
   *************
   ************* EnergyPlus Warmup Error Summary. During Warmup: 1 Warning; 0 Severe Errors.
   ************* EnergyPlus Sizing Error Summary. During Sizing: 4 Warning; 0 Severe Errors.
   ************* EnergyPlus Completed Successfully-- 82684 Warning; 0 Severe Errors; Elapsed Time=00hr 01min 53.73sec
