Program Version,EnergyPlus, Version 22.2.0-c249759bad, YMD=2023.09.01 19:16,
   ************* Beginning Zone Sizing Calculations
   ** Warning ** ProcessScheduleInput: Schedule:Constant="ALWAYS ON DISCRETE", Schedule Type Limits Name="ONOFF" not found -- will not be validated
   ** Warning ** Foundation:Kiva="KIVA FOUNDATION", no Interior Horizontal Insulation Material Name defined
   **   ~~~   ** Interior Horizontal Insulation Depth will not be used.
   ** Warning ** CheckUsedConstructions: There are 15 nominally unused constructions in input.
   **   ~~~   ** Each Unused construction is shown.
   ************* Construction=INTERIOR FLOOR
   ************* Construction=INTERIOR WINDOW
   ************* Construction=EXTERIOR DOOR
   ************* Construction=INTERIOR DOOR
   ************* Construction=GABLE CONSTRUCTION
   ************* Construction=CRAWL_FLOOR
   ************* Construction=INSULATED PIPE
   ************* Construction=PLAIN PIPE
   ************* Construction=TDD PIPE
   ************* Construction=TDD DOME
   ************* Construction=TDD DIFFUSER
   ************* Construction=CRAWL WALL
   ************* Construction=CEILING-FLOOR-LAYER
   ************* Construction=SLAB CONSTRUCTION W FULL R10 INSULATION
   ************* Construction=SLAB CONSTRUCTION W FULL R5 INSULATION
   ** Warning ** GetDXCoils: Coil:Heating:DX:SingleSpeed="DX_HEATING_COIL" curve values
   **   ~~~   ** ... Defrost Energy Input Ratio Function of Temperature Curve Name = DEFROSTEIR output is not equal to 1.0 (+ or - 10%) at rated conditions.
   **   ~~~   ** ... Curve output at rated conditions = 0.152
   ************* Beginning System Sizing Calculations
   ************* Beginning Plant Sizing Calculations
   ** Warning ** SizeDXCoil Coil:Cooling:DX:SingleSpeed DX_COOLING_COIL
   **   ~~~   ** ...Gross Rated Total Cooling Capacity [W] will be limited by the maximum rated volume flow per rated total capacity ratio.
   **   ~~~   ** ...DX coil volume flow rate ( m3/s ) = 0.400026
   **   ~~~   ** ...Requested capacity ( W ) = 6120.188
   **   ~~~   ** ...Requested flow/capacity ratio ( m3/s/W ) = 6.536E-005
   **   ~~~   ** ...Maximum flow/capacity ratio ( m3/s/W ) = 6.041E-005
   **   ~~~   ** ...Adjusted capacity ( W ) = 6621.853
   ** Warning ** Coil:WaterHeating:AirToWaterHeatPump:Wrapped "HEAT PUMP WATER HEATER EVAPORATOR": Rated air volume flow rate per watt of rated total water heating capacity is out of range
   **   ~~~   ** Min Rated Vol Flow Per Watt=[4.027E-005], Rated Vol Flow Per Watt=[1.510E-004], Max Rated Vol Flow Per Watt=[8.056E-005]. See Input-Output Reference Manual for valid range.
   ************* SizeFan: : Potential issue with equipment sizing for Fan:OnOff HEAT PUMP WATER HEATER FAN
   **   ~~~   ** User-Specified Maximum Flow Rate [m3/s] = 0.22653
   **   ~~~   ** differs from Design Size Maximum Flow Rate [m3/s] = 7.55250E-002
   **   ~~~   ** This may, or may not, indicate mismatched component sizes.
   **   ~~~   ** Verify that the value entered is intended and is consistent with other components.
   ** Warning ** Water heater = WATER HEATER TANK:  Recovery Efficiency and Energy Factor could not be calculated during the test for standard ratings
   **   ~~~   ** Setpoint was never recovered and/or heater never turned on
   ** Warning ** Check input. Pump nominal power or motor efficiency is set to 0, for pump=MAINS PRESSURE
   ** Warning ** Output:Meter: invalid Key Name="ELECTRIC_RANGE:INTERIOREQUIPMENT:ELECTRICITY" - not found.
   ** Warning ** Output:Meter: invalid Key Name="ELECTRIC_DRYER:INTERIOREQUIPMENT:ELECTRICITY" - not found.
   ** Warning ** Output:Meter: invalid Key Name="HEATRECOVERY:ELECTRICITY" - not found.
   ** Warning ** Output:Meter: invalid Key Name="HEATING:NATURALGAS" - not found.
   ** Warning ** Output:Meter: invalid Key Name="WATERSYSTEMS:NATURALGAS" - not found.
   ** Warning ** Output:Meter: invalid Key Name="PROPANE:FACILITY" - not found.
   ** Warning ** Output:Meter: invalid Key Name="HEATING:PROPANE" - not found.
   ************* Testing Individual Branch Integrity
   ************* All Branches passed integrity testing
   ************* Testing Individual Supply Air Path Integrity
   ************* All Supply Air Paths passed integrity testing
   ************* Testing Individual Return Air Path Integrity
   ************* All Return Air Paths passed integrity testing
   ************* No node connection errors were found.
   ************* Beginning Simulation
   ** Warning ** AirflowNetwork::Solver::validate_distribution: Heat pump water heater is simulated along with an AirflowNetwork but is not included in the AirflowNetwork.
   ** Warning ** CalcEquipmentFlowRates: "TOTAL HOT WATER LOAD" - Target water temperature is greater than the hot water temperature by (0.86 C)
   **   ~~~   **  Environment=EXTREME_WINTER, at Simulation time=01/27 06:45 - 07:00
   **   ~~~   ** ...target water temperature     = 53.33 C
   **   ~~~   ** ...hot water temperature        = 52.47 C
   **   ~~~   ** ...Target water temperature should be less than or equal to the hot water temperature. Verify temperature setpoints and schedules.
   ** Warning ** SimHVAC: Maximum iterations (20) exceeded for all HVAC loops, at EXTREME_SUMMER, 08/01 02:00 - 02:15
   **   ~~~   ** The solution for one or more of the Air Loop HVAC systems did not appear to converge
   **   ~~~   ** Air System Named = CENTRAL SYSTEM did not converge for mass flow rate
   **   ~~~   ** Check values should be zero. Most Recent values listed first.
   **   ~~~   ** Demand-to-Supply interface mass flow rate check value iteration history trace: 7.254913E-002,7.254913E-002,7.254913E-002,7.254913E-002,7.254913E-002,7.254913E-002,7.254913E-002,7.254913E-002,7.254913E-002,7.254913E-002,
   **   ~~~   ** Supply-to-demand interface deck 1 mass flow rate check value iteration history trace: 7.254913E-002,7.254913E-002,7.254913E-002,7.254913E-002,7.254913E-002,7.254913E-002,7.254913E-002,7.254913E-002,7.254913E-002,7.254913E-002,
   **   ~~~   ** Air System Named = CENTRAL SYSTEM did not converge for energy
   **   ~~~   ** Check values should be zero. Most Recent values listed first.
   **   ~~~   ** Demand-to-Supply interface energy check value iteration history trace: 1781.656692,1781.656693,1781.656694,1781.656694,1781.656695,1781.656696,1781.656697,1781.656697,1781.656698,1781.656699,
   **   ~~~   ** Supply-to-demand interface deck 1 energy check value iteration history trace: 967.065500,967.065500,967.065501,967.065501,967.065501,967.065502,967.065502,967.065502,967.065503,967.065503,
   ** Warning ** SimHVAC: Maximum iterations (20) exceeded for all HVAC loops, at EXTREME_SUMMER, 08/02 04:23 - 04:30
   **   ~~~   ** The solution for one or more of the Air Loop HVAC systems did not appear to converge
   **   ~~~   ** Air System Named = CENTRAL SYSTEM did not converge for mass flow rate
   **   ~~~   ** Check values should be zero. Most Recent values listed first.
   **   ~~~   ** Demand-to-Supply interface mass flow rate check value iteration history trace: 0.177503,0.177503,0.177503,0.177503,0.177503,0.177503,0.177503,0.177503,0.177503,0.177503,
   **   ~~~   ** Supply-to-demand interface deck 1 mass flow rate check value iteration history trace: 0.177503,0.177503,0.177503,0.177503,0.177503,0.177503,0.177503,0.177503,0.177503,0.177503,
   **   ~~~   ** Air System Named = CENTRAL SYSTEM did not converge for energy
   **   ~~~   ** Check values should be zero. Most Recent values listed first.
   **   ~~~   ** Demand-to-Supply interface energy check value iteration history trace: 4416.360542,4416.360544,4416.360546,4416.360547,4416.360549,4416.360551,4416.360552,4416.360554,4416.360555,4416.360557,
   **   ~~~   ** Supply-to-demand interface deck 1 energy check value iteration history trace: 2498.737620,2498.737621,2498.737622,2498.737623,2498.737624,2498.737625,2498.737626,2498.737627,2498.737628,2498.737629,
   ** Warning ** SimHVAC: Maximum iterations (20) exceeded for all HVAC loops, at ANNUAL, 01/14 20:00 - 20:08
   **   ~~~   ** The solution for one or more of the Air Loop HVAC systems did not appear to converge
   **   ~~~   ** Air System Named = CENTRAL SYSTEM did not converge for mass flow rate
   **   ~~~   ** Check values should be zero. Most Recent values listed first.
   **   ~~~   ** Demand-to-Supply interface mass flow rate check value iteration history trace: 8.621929E-002,8.621929E-002,8.621929E-002,8.621929E-002,8.621929E-002,8.621929E-002,8.621929E-002,8.621929E-002,8.621929E-002,8.621929E-002,
   **   ~~~   ** Supply-to-demand interface deck 1 mass flow rate check value iteration history trace: 8.621929E-002,8.621929E-002,8.621929E-002,8.621929E-002,8.621929E-002,8.621929E-002,8.621929E-002,8.621929E-002,8.621929E-002,8.621929E-002,
   **   ~~~   ** Air System Named = CENTRAL SYSTEM did not converge for energy
   **   ~~~   ** Check values should be zero. Most Recent values listed first.
   **   ~~~   ** Demand-to-Supply interface energy check value iteration history trace: 1700.211191,1700.211191,1700.211191,1700.211191,1700.211191,1700.211191,1700.211191,1700.211190,1700.211190,1700.211190,
   **   ~~~   ** Supply-to-demand interface deck 1 energy check value iteration history trace: 2591.329659,2591.329659,2591.329658,2591.329658,2591.329658,2591.329658,2591.329658,2591.329657,2591.329657,2591.329657,
   ** Warning ** SimHVAC: Maximum iterations (20) exceeded for all HVAC loops, at ANNUAL, 01/21 10:49 - 10:52
   **   ~~~   ** The solution for one or more of the Air Loop HVAC systems did not appear to converge
   **   ~~~   ** Air System Named = CENTRAL SYSTEM did not converge for mass flow rate
   **   ~~~   ** Check values should be zero. Most Recent values listed first.
   **   ~~~   ** Demand-to-Supply interface mass flow rate check value iteration history trace: 0.102786,0.102786,0.102786,0.102786,0.102786,0.102786,0.102786,0.102786,0.102786,0.102786,
   **   ~~~   ** Supply-to-demand interface deck 1 mass flow rate check value iteration history trace: 0.102786,0.102786,0.102786,0.102786,0.102786,0.102786,0.102786,0.102786,0.102786,0.102786,
   **   ~~~   ** Air System Named = CENTRAL SYSTEM did not converge for energy
   **   ~~~   ** Check values should be zero. Most Recent values listed first.
   **   ~~~   ** Demand-to-Supply interface energy check value iteration history trace: 2037.162198,2037.162197,2037.162197,2037.162197,2037.162197,2037.162197,2037.162197,2037.162197,2037.162196,2037.162196,
   **   ~~~   ** Supply-to-demand interface deck 1 energy check value iteration history trace: 3156.934664,3156.934664,3156.934663,3156.934663,3156.934663,3156.934663,3156.934662,3156.934662,3156.934662,3156.934662,
   ** Warning ** SimHVAC: Maximum iterations (20) exceeded for all HVAC loops, at ANNUAL, 01/27 10:30 - 10:35
   **   ~~~   ** The solution for one or more of the Air Loop HVAC systems did not appear to converge
   **   ~~~   ** Air System Named = CENTRAL SYSTEM did not converge for mass flow rate
   **   ~~~   ** Check values should be zero. Most Recent values listed first.
   **   ~~~   ** Demand-to-Supply interface mass flow rate check value iteration history trace: 5.558967E-002,5.558967E-002,5.558967E-002,5.558966E-002,5.558966E-002,5.558966E-002,5.558966E-002,5.558966E-002,5.558966E-002,5.558966E-002,
   **   ~~~   ** Supply-to-demand interface deck 1 mass flow rate check value iteration history trace: 5.558967E-002,5.558967E-002,5.558967E-002,5.558966E-002,5.558966E-002,5.558966E-002,5.558966E-002,5.558966E-002,5.558966E-002,5.558966E-002,
   **   ~~~   ** Air System Named = CENTRAL SYSTEM did not converge for energy
   **   ~~~   ** Check values should be zero. Most Recent values listed first.
   **   ~~~   ** Demand-to-Supply interface energy check value iteration history trace: 1101.559599,1101.559599,1101.559599,1101.559599,1101.559599,1101.559599,1101.559599,1101.559599,1101.559599,1101.559599,
   **   ~~~   ** Supply-to-demand interface deck 1 energy check value iteration history trace: 1703.567318,1703.567317,1703.567317,1703.567317,1703.567317,1703.567317,1703.567317,1703.567317,1703.567317,1703.567317,
   ** Warning ** SimHVAC: Maximum iterations (20) exceeded for all HVAC loops, at ANNUAL, 03/06 19:45 - 19:52
   **   ~~~   ** The solution for one or more of the Air Loop HVAC systems did not appear to converge
   **   ~~~   ** Air System Named = CENTRAL SYSTEM did not converge for mass flow rate
   **   ~~~   ** Check values should be zero. Most Recent values listed first.
   **   ~~~   ** Demand-to-Supply interface mass flow rate check value iteration history trace: 5.499689E-002,5.499689E-002,5.499689E-002,5.499689E-002,5.499689E-002,5.499689E-002,5.499689E-002,5.499689E-002,5.499689E-002,5.499689E-002,
   **   ~~~   ** Supply-to-demand interface deck 1 mass flow rate check value iteration history trace: 5.499689E-002,5.499689E-002,5.499689E-002,5.499689E-002,5.499689E-002,5.499689E-002,5.499689E-002,5.499689E-002,5.499689E-002,5.499689E-002,
   **   ~~~   ** Air System Named = CENTRAL SYSTEM did not converge for energy
   **   ~~~   ** Check values should be zero. Most Recent values listed first.
   **   ~~~   ** Demand-to-Supply interface energy check value iteration history trace: 1086.377754,1086.377754,1086.377754,1086.377754,1086.377754,1086.377753,1086.377753,1086.377753,1086.377753,1086.377753,
   **   ~~~   ** Supply-to-demand interface deck 1 energy check value iteration history trace: 1904.472149,1904.472149,1904.472149,1904.472149,1904.472149,1904.472149,1904.472149,1904.472149,1904.472149,1904.472148,
   ** Warning ** SimHVAC: Maximum iterations (20) exceeded for all HVAC loops, at ANNUAL, 03/15 09:00 - 09:02
   **   ~~~   ** The solution for one or more of the Air Loop HVAC systems did not appear to converge
   **   ~~~   ** Air System Named = CENTRAL SYSTEM did not converge for mass flow rate
   **   ~~~   ** Check values should be zero. Most Recent values listed first.
   **   ~~~   ** Demand-to-Supply interface mass flow rate check value iteration history trace: 8.457781E-002,8.457781E-002,8.457781E-002,8.457781E-002,8.457781E-002,8.457781E-002,8.457781E-002,8.457781E-002,8.457781E-002,8.457781E-002,
   **   ~~~   ** Supply-to-demand interface deck 1 mass flow rate check value iteration history trace: 8.457781E-002,8.457781E-002,8.457781E-002,8.457781E-002,8.457781E-002,8.457781E-002,8.457781E-002,8.457781E-002,8.457781E-002,8.457781E-002,
   **   ~~~   ** Air System Named = CENTRAL SYSTEM did not converge for energy
   **   ~~~   ** Check values should be zero. Most Recent values listed first.
   **   ~~~   ** Demand-to-Supply interface energy check value iteration history trace: 1676.058532,1676.058532,1676.058532,1676.058532,1676.058532,1676.058532,1676.058532,1676.058532,1676.058532,1676.058532,
   **   ~~~   ** Supply-to-demand interface deck 1 energy check value iteration history trace: 2798.212954,2798.212954,2798.212954,2798.212954,2798.212954,2798.212954,2798.212954,2798.212953,2798.212953,2798.212953,
   ** Warning ** SimHVAC: Maximum iterations (20) exceeded for all HVAC loops, at ANNUAL, 03/27 10:30 - 10:34
   **   ~~~   ** The solution for one or more of the Air Loop HVAC systems did not appear to converge
   **   ~~~   ** Air System Named = CENTRAL SYSTEM did not converge for mass flow rate
   **   ~~~   ** Check values should be zero. Most Recent values listed first.
   **   ~~~   ** Demand-to-Supply interface mass flow rate check value iteration history trace: 6.456247E-002,6.456247E-002,6.456247E-002,6.456247E-002,6.456247E-002,6.456247E-002,6.456247E-002,6.456247E-002,6.456247E-002,6.456247E-002,
   **   ~~~   ** Supply-to-demand interface deck 1 mass flow rate check value iteration history trace: 6.456247E-002,6.456247E-002,6.456247E-002,6.456247E-002,6.456247E-002,6.456247E-002,6.456247E-002,6.456247E-002,6.456247E-002,6.456247E-002,
   **   ~~~   ** Air System Named = CENTRAL SYSTEM did not converge for energy
   **   ~~~   ** Check values should be zero. Most Recent values listed first.
   **   ~~~   ** Demand-to-Supply interface energy check value iteration history trace: 1279.426479,1279.426479,1279.426479,1279.426479,1279.426479,1279.426479,1279.426478,1279.426478,1279.426478,1279.426478,
   **   ~~~   ** Supply-to-demand interface deck 1 energy check value iteration history trace: 1992.417812,1992.417812,1992.417812,1992.417812,1992.417812,1992.417812,1992.417811,1992.417811,1992.417811,1992.417811,
   ** Warning ** Temperature out of range [-100. to 200.] (PsyPsatFnTemp)
   **   ~~~   **  Routine=PsyTwbFnTdbWPb, Environment=ANNUAL, at Simulation time=03/27 17:15 - 17:19
   **   ~~~   **  Input Temperature=-140.06
   ** Warning ** SimHVAC: Maximum iterations (20) exceeded for all HVAC loops, at ANNUAL, 03/30 09:39 - 09:41
   **   ~~~   ** The solution for one or more of the Air Loop HVAC systems did not appear to converge
   **   ~~~   ** Air System Named = CENTRAL SYSTEM did not converge for mass flow rate
   **   ~~~   ** Check values should be zero. Most Recent values listed first.
   **   ~~~   ** Demand-to-Supply interface mass flow rate check value iteration history trace: 8.095859E-002,8.095859E-002,8.095859E-002,8.095859E-002,8.095859E-002,8.095859E-002,8.095859E-002,8.095859E-002,8.095859E-002,8.095859E-002,
   **   ~~~   ** Supply-to-demand interface deck 1 mass flow rate check value iteration history trace: 8.095859E-002,8.095859E-002,8.095859E-002,8.095859E-002,8.095859E-002,8.095859E-002,8.095859E-002,8.095859E-002,8.095859E-002,8.095859E-002,
   **   ~~~   ** Air System Named = CENTRAL SYSTEM did not converge for energy
   **   ~~~   ** Check values should be zero. Most Recent values listed first.
   **   ~~~   ** Demand-to-Supply interface energy check value iteration history trace: 1600.752613,1600.752613,1600.752613,1600.752613,1600.752613,1600.752613,1600.752613,1600.752612,1600.752612,1600.752612,
   **   ~~~   ** Supply-to-demand interface deck 1 energy check value iteration history trace: 2752.592430,2752.592430,2752.592430,2752.592430,2752.592430,2752.592429,2752.592429,2752.592429,2752.592429,2752.592429,
   ** Warning ** SimHVAC: Maximum iterations (20) exceeded for all HVAC loops, at ANNUAL, 04/03 09:15 - 09:30
   **   ~~~   ** The solution for one or more of the Air Loop HVAC systems did not appear to converge
   **   ~~~   ** Air System Named = CENTRAL SYSTEM did not converge for mass flow rate
   **   ~~~   ** Check values should be zero. Most Recent values listed first.
   **   ~~~   ** Demand-to-Supply interface mass flow rate check value iteration history trace: 6.452771E-002,6.452771E-002,6.452771E-002,6.452771E-002,6.452771E-002,6.452771E-002,6.452771E-002,6.452771E-002,6.452771E-002,6.452771E-002,
   **   ~~~   ** Supply-to-demand interface deck 1 mass flow rate check value iteration history trace: 6.452771E-002,6.452771E-002,6.452771E-002,6.452771E-002,6.452771E-002,6.452771E-002,6.452771E-002,6.452771E-002,6.452771E-002,6.452771E-002,
   **   ~~~   ** Air System Named = CENTRAL SYSTEM did not converge for energy
   **   ~~~   ** Check values should be zero. Most Recent values listed first.
   **   ~~~   ** Demand-to-Supply interface energy check value iteration history trace: 1278.639523,1278.639523,1278.639522,1278.639522,1278.639522,1278.639521,1278.639521,1278.639521,1278.639520,1278.639520,
   **   ~~~   ** Supply-to-demand interface deck 1 energy check value iteration history trace: 2162.228520,2162.228519,2162.228519,2162.228518,2162.228517,2162.228517,2162.228516,2162.228516,2162.228515,2162.228515,
   **   ~~~   ** Node named ZONE INLET NODE shows oscillating temperatures across iterations with a repeated value of 33.346998
   **   ~~~   ** Node named ZONE INLET NODE temperature [C] iteration history trace (most recent first): 33.346998,33.346998,33.346997,33.346997,33.346997,33.346997,33.346996,33.346996,33.346996,33.346995,
   ** Warning ** SimHVAC: Maximum iterations (20) exceeded for all HVAC loops, at ANNUAL, 04/03 09:23 - 09:30
   **   ~~~   ** The solution for one or more of the Air Loop HVAC systems did not appear to converge
   **   ~~~   ** Air System Named = CENTRAL SYSTEM did not converge for mass flow rate
   **   ~~~   ** Check values should be zero. Most Recent values listed first.
   **   ~~~   ** Demand-to-Supply interface mass flow rate check value iteration history trace: 6.362569E-002,6.362569E-002,6.362569E-002,6.362569E-002,6.362569E-002,6.362569E-002,6.362569E-002,6.362569E-002,6.362569E-002,6.362569E-002,
   **   ~~~   ** Supply-to-demand interface deck 1 mass flow rate check value iteration history trace: 6.362569E-002,6.362569E-002,6.362569E-002,6.362569E-002,6.362569E-002,6.362569E-002,6.362569E-002,6.362569E-002,6.362569E-002,6.362569E-002,
   **   ~~~   ** Air System Named = CENTRAL SYSTEM did not converge for energy
   **   ~~~   ** Check values should be zero. Most Recent values listed first.
   **   ~~~   ** Demand-to-Supply interface energy check value iteration history trace: 1261.274711,1261.274711,1261.274711,1261.274711,1261.274710,1261.274710,1261.274710,1261.274709,1261.274709,1261.274709,
   **   ~~~   ** Supply-to-demand interface deck 1 energy check value iteration history trace: 2132.537312,2132.537311,2132.537311,2132.537310,2132.537310,2132.537309,2132.537309,2132.537308,2132.537308,2132.537307,
   **   ~~~   ** Node named ZONE INLET NODE shows oscillating temperatures across iterations with a repeated value of 33.355353
   **   ~~~   ** Node named ZONE INLET NODE temperature [C] iteration history trace (most recent first): 33.355353,33.355352,33.355352,33.355352,33.355352,33.355351,33.355351,33.355351,33.355350,33.355350,
   ** Warning ** SimHVAC: Maximum iterations (20) exceeded for all HVAC loops, at ANNUAL, 04/05 15:00 - 15:15
   **   ~~~   ** The solution for one or more of the Air Loop HVAC systems did not appear to converge
   **   ~~~   ** Air System Named = CENTRAL SYSTEM did not converge for mass flow rate
   **   ~~~   ** Check values should be zero. Most Recent values listed first.
   **   ~~~   ** Demand-to-Supply interface mass flow rate check value iteration history trace: 5.453552E-002,5.453552E-002,5.453552E-002,5.453552E-002,5.453552E-002,5.453552E-002,5.453552E-002,5.453552E-002,5.453552E-002,5.453552E-002,
   **   ~~~   ** Supply-to-demand interface deck 1 mass flow rate check value iteration history trace: 5.453552E-002,5.453552E-002,5.453552E-002,5.453552E-002,5.453552E-002,5.453552E-002,5.453552E-002,5.453552E-002,5.453552E-002,5.453552E-002,
   **   ~~~   ** Air System Named = CENTRAL SYSTEM did not converge for energy
   **   ~~~   ** Check values should be zero. Most Recent values listed first.
   **   ~~~   ** Demand-to-Supply interface energy check value iteration history trace: 1080.767590,1080.767590,1080.767590,1080.767590,1080.767590,1080.767590,1080.767590,1080.767590,1080.767590,1080.767589,
   **   ~~~   ** Supply-to-demand interface deck 1 energy check value iteration history trace: 1898.320309,1898.320309,1898.320309,1898.320309,1898.320309,1898.320309,1898.320309,1898.320309,1898.320309,1898.320308,
   ** Warning ** SimHVAC: Maximum iterations (20) exceeded for all HVAC loops, at ANNUAL, 04/06 02:05 - 02:10
   **   ~~~   ** The solution for one or more of the Air Loop HVAC systems did not appear to converge
   **   ~~~   ** Air System Named = CENTRAL SYSTEM did not converge for mass flow rate
   **   ~~~   ** Check values should be zero. Most Recent values listed first.
   **   ~~~   ** Demand-to-Supply interface mass flow rate check value iteration history trace: 5.359502E-002,5.359502E-002,5.359502E-002,5.359502E-002,5.359502E-002,5.359502E-002,5.359502E-002,5.359502E-002,5.359502E-002,5.359502E-002,
   **   ~~~   ** Supply-to-demand interface deck 1 mass flow rate check value iteration history trace: 5.359502E-002,5.359502E-002,5.359502E-002,5.359502E-002,5.359502E-002,5.359502E-002,5.359502E-002,5.359502E-002,5.359502E-002,5.359502E-002,
   **   ~~~   ** Air System Named = CENTRAL SYSTEM did not converge for energy
   **   ~~~   ** Check values should be zero. Most Recent values listed first.
   **   ~~~   ** Demand-to-Supply interface energy check value iteration history trace: 1009.338632,1009.338632,1009.338632,1009.338632,1009.338632,1009.338632,1009.338632,1009.338632,1009.338632,1009.338632,
   **   ~~~   ** Supply-to-demand interface deck 1 energy check value iteration history trace: 1790.623611,1790.623611,1790.623611,1790.623611,1790.623611,1790.623611,1790.623611,1790.623611,1790.623611,1790.623611,
   ** Warning ** SimHVAC: Maximum iterations (20) exceeded for all HVAC loops, at ANNUAL, 04/15 09:27 - 09:30
   **   ~~~   ** The solution for one or more of the Air Loop HVAC systems did not appear to converge
   **   ~~~   ** Air System Named = CENTRAL SYSTEM did not converge for mass flow rate
   **   ~~~   ** Check values should be zero. Most Recent values listed first.
   **   ~~~   ** Demand-to-Supply interface mass flow rate check value iteration history trace: 7.942908E-002,7.942908E-002,7.942908E-002,7.942908E-002,7.942908E-002,7.942908E-002,7.942908E-002,7.942908E-002,7.942908E-002,7.942908E-002,
   **   ~~~   ** Supply-to-demand interface deck 1 mass flow rate check value iteration history trace: 7.942908E-002,7.942908E-002,7.942908E-002,7.942908E-002,7.942908E-002,7.942908E-002,7.942908E-002,7.942908E-002,7.942908E-002,7.942908E-002,
   **   ~~~   ** Air System Named = CENTRAL SYSTEM did not converge for energy
   **   ~~~   ** Check values should be zero. Most Recent values listed first.
   **   ~~~   ** Demand-to-Supply interface energy check value iteration history trace: 1568.903571,1568.903571,1568.903570,1568.903570,1568.903570,1568.903570,1568.903570,1568.903570,1568.903570,1568.903570,
   **   ~~~   ** Supply-to-demand interface deck 1 energy check value iteration history trace: 2699.750442,2699.750442,2699.750442,2699.750442,2699.750442,2699.750442,2699.750442,2699.750441,2699.750441,2699.750441,
   ************* Simulation Error Summary *************
   ** Warning ** The following Report Variables were requested but not generated -- check.rdd file
   **   ~~~   ** Either the IDF did not contain these elements, the variable name is misspelled,
   **   ~~~   ** or the requested variable is an advanced output which requires Output : Diagnostics, DisplayAdvancedReportVariables;
   ************* Key=*, VarName=BASEBOARD TOTAL HEATING ENERGY, Frequency=
   ************* Key=*, VarName=WATER HEATER NATURALGAS ENERGY, Frequency=
   ************* Key=*, VarName=COOLING COIL TOTAL HEATING ENERGY, Frequency=
   ************* There are 34 unused schedules in input.
   ************* There are 388 unused week schedules in input.
   ************* There are 397 unused day schedules in input.
   ************* Use Output:Diagnostics,DisplayUnusedSchedules; to see them.
   *************
   ************* ===== Recurring Error Summary =====
   ************* The following recurring error messages occurred.
   *************
   *************  ** Warning ** "TOTAL HOT WATER LOAD" - Target water temperature should be less than or equal to the hot water temperature error continues...
   *************  **   ~~~   **   This error occurred 86123 total times;
   *************  **   ~~~   **   during Warmup 0 times;
   *************  **   ~~~   **   during Sizing 0 times.
   *************  **   ~~~   **   Max=9.580532  Min=4.842713E-004
   *************
   *************  ** Warning ** Temperature out of range [-100. to 200.] (PsyPsatFnTemp)
   *************  **   ~~~   **   This error occurred 1 total times;
   *************  **   ~~~   **   during Warmup 0 times;
   *************  **   ~~~   **   during Sizing 0 times.
   *************  **   ~~~   **   Max=-140.060295 C  Min=-140.060295 C
   *************
   *************  ** Warning ** SimHVAC: Exceeding Maximum iterations for all HVAC loops, during ANNUAL continues
   *************  **   ~~~   **   This error occurred 10 total times;
   *************  **   ~~~   **   during Warmup 0 times;
   *************  **   ~~~   **   during Sizing 0 times.
   *************
   *************
   ************* ===== Final Error Summary =====
   ************* The following error categories occurred.  Consider correcting or noting.
   ************* Nominally Unused Constructions
   ************* ..The nominally unused constructions warning is provided to alert you to potential conditions that can cause
   ************* ..extra time during simulation. Each construction is calculated by the algorithm indicated in the HeatBalanceAlgorithm
   ************* ..object. You may remove the constructions indicated (when you use the DisplayExtraWarnings option).
   *************
   ************* EnergyPlus Warmup Error Summary. During Warmup: 1 Warning; 0 Severe Errors.
   ************* EnergyPlus Sizing Error Summary. During Sizing: 4 Warning; 0 Severe Errors.
   ************* EnergyPlus Completed Successfully-- 86166 Warning; 0 Severe Errors; Elapsed Time=00hr 01min 25.93sec
