Program Version,EnergyPlus, Version 22.2.0-c249759bad, YMD=2023.09.01 19:18,
   ************* Beginning Zone Sizing Calculations
   ** Warning ** ProcessScheduleInput: Schedule:Constant="ALWAYS ON DISCRETE", Schedule Type Limits Name="ONOFF" not found -- will not be validated
   ** Warning ** Foundation:Kiva="KIVA FOUNDATION", no Interior Horizontal Insulation Material Name defined
   **   ~~~   ** Interior Horizontal Insulation Depth will not be used.
   ** Warning ** CheckUsedConstructions: There are 15 nominally unused constructions in input.
   **   ~~~   ** Each Unused construction is shown.
   ************* Construction=INTERIOR FLOOR
   ************* Construction=INTERIOR WINDOW
   ************* Construction=EXTERIOR DOOR
   ************* Construction=INTERIOR DOOR
   ************* Construction=GABLE CONSTRUCTION
   ************* Construction=CRAWL_FLOOR
   ************* Construction=INSULATED PIPE
   ************* Construction=PLAIN PIPE
   ************* Construction=TDD PIPE
   ************* Construction=TDD DOME
   ************* Construction=TDD DIFFUSER
   ************* Construction=CRAWL WALL
   ************* Construction=CEILING-FLOOR-LAYER
   ************* Construction=SLAB CONSTRUCTION W FULL R10 INSULATION
   ************* Construction=SLAB CONSTRUCTION W FULL R5 INSULATION
   ** Warning ** GetDXCoils: Coil:Heating:DX:SingleSpeed="DX_HEATING_COIL" curve values
   **   ~~~   ** ... Defrost Energy Input Ratio Function of Temperature Curve Name = DEFROSTEIR output is not equal to 1.0 (+ or - 10%) at rated conditions.
   **   ~~~   ** ... Curve output at rated conditions = 0.152
   ************* Beginning System Sizing Calculations
   ************* Beginning Plant Sizing Calculations
   ** Warning ** Coil:WaterHeating:AirToWaterHeatPump:Wrapped "HEAT PUMP WATER HEATER EVAPORATOR": Rated air volume flow rate per watt of rated total water heating capacity is out of range
   **   ~~~   ** Min Rated Vol Flow Per Watt=[4.027E-005], Rated Vol Flow Per Watt=[1.510E-004], Max Rated Vol Flow Per Watt=[8.056E-005]. See Input-Output Reference Manual for valid range.
   ************* SizeFan: : Potential issue with equipment sizing for Fan:OnOff HEAT PUMP WATER HEATER FAN
   **   ~~~   ** User-Specified Maximum Flow Rate [m3/s] = 0.22653
   **   ~~~   ** differs from Design Size Maximum Flow Rate [m3/s] = 7.55250E-002
   **   ~~~   ** This may, or may not, indicate mismatched component sizes.
   **   ~~~   ** Verify that the value entered is intended and is consistent with other components.
   ** Warning ** Water heater = WATER HEATER TANK:  Recovery Efficiency and Energy Factor could not be calculated during the test for standard ratings
   **   ~~~   ** Setpoint was never recovered and/or heater never turned on
   ** Warning ** Check input. Pump nominal power or motor efficiency is set to 0, for pump=MAINS PRESSURE
   ** Warning ** Output:Meter: invalid Key Name="ELECTRIC_RANGE:INTERIOREQUIPMENT:ELECTRICITY" - not found.
   ** Warning ** Output:Meter: invalid Key Name="ELECTRIC_DRYER:INTERIOREQUIPMENT:ELECTRICITY" - not found.
   ** Warning ** Output:Meter: invalid Key Name="HEATRECOVERY:ELECTRICITY" - not found.
   ** Warning ** Output:Meter: invalid Key Name="HEATING:NATURALGAS" - not found.
   ** Warning ** Output:Meter: invalid Key Name="WATERSYSTEMS:NATURALGAS" - not found.
   ** Warning ** Output:Meter: invalid Key Name="PROPANE:FACILITY" - not found.
   ** Warning ** Output:Meter: invalid Key Name="HEATING:PROPANE" - not found.
   ************* Testing Individual Branch Integrity
   ************* All Branches passed integrity testing
   ************* Testing Individual Supply Air Path Integrity
   ************* All Supply Air Paths passed integrity testing
   ************* Testing Individual Return Air Path Integrity
   ************* All Return Air Paths passed integrity testing
   ************* No node connection errors were found.
   ************* Beginning Simulation
   ** Warning ** AirflowNetwork::Solver::validate_distribution: Heat pump water heater is simulated along with an AirflowNetwork but is not included in the AirflowNetwork.
   ** Warning ** CalcEquipmentFlowRates: "TOTAL HOT WATER LOAD" - Target water temperature is greater than the hot water temperature by (0.89 C)
   **   ~~~   **  Environment=EXTREME_WINTER, at Simulation time=12/22 06:45 - 07:00
   **   ~~~   ** ...target water temperature     = 53.33 C
   **   ~~~   ** ...hot water temperature        = 52.44 C
   **   ~~~   ** ...Target water temperature should be less than or equal to the hot water temperature. Verify temperature setpoints and schedules.
   ** Warning ** SimHVAC: Maximum iterations (20) exceeded for all HVAC loops, at ANNUAL, 01/03 16:00 - 16:08
   **   ~~~   ** The solution for one or more of the Air Loop HVAC systems did not appear to converge
   **   ~~~   ** Air System Named = CENTRAL SYSTEM did not converge for mass flow rate
   **   ~~~   ** Check values should be zero. Most Recent values listed first.
   **   ~~~   ** Demand-to-Supply interface mass flow rate check value iteration history trace: 7.341613E-002,7.341613E-002,7.341613E-002,7.341613E-002,7.341613E-002,7.341613E-002,7.341613E-002,7.341613E-002,7.341613E-002,7.341613E-002,
   **   ~~~   ** Supply-to-demand interface deck 1 mass flow rate check value iteration history trace: 7.341613E-002,7.341613E-002,7.341613E-002,7.341613E-002,7.341613E-002,7.341613E-002,7.341613E-002,7.341613E-002,7.341613E-002,7.341613E-002,
   **   ~~~   ** Air System Named = CENTRAL SYSTEM did not converge for energy
   **   ~~~   ** Check values should be zero. Most Recent values listed first.
   **   ~~~   ** Demand-to-Supply interface energy check value iteration history trace: 1443.771674,1443.771674,1443.771674,1443.771674,1443.771674,1443.771674,1443.771674,1443.771674,1443.771674,1443.771674,
   **   ~~~   ** Supply-to-demand interface deck 1 energy check value iteration history trace: 2226.045782,2226.045781,2226.045781,2226.045781,2226.045781,2226.045781,2226.045781,2226.045780,2226.045780,2226.045780,
   ** Warning ** SimHVAC: Maximum iterations (20) exceeded for all HVAC loops, at ANNUAL, 01/25 18:15 - 18:30
   **   ~~~   ** The solution for one or more of the Air Loop HVAC systems did not appear to converge
   **   ~~~   ** Air System Named = CENTRAL SYSTEM did not converge for mass flow rate
   **   ~~~   ** Check values should be zero. Most Recent values listed first.
   **   ~~~   ** Demand-to-Supply interface mass flow rate check value iteration history trace: 6.043341E-002,6.043341E-002,6.043341E-002,6.043341E-002,6.043341E-002,6.043341E-002,6.043341E-002,6.043341E-002,6.043341E-002,6.043341E-002,
   **   ~~~   ** Supply-to-demand interface deck 1 mass flow rate check value iteration history trace: 6.043341E-002,6.043341E-002,6.043341E-002,6.043341E-002,6.043341E-002,6.043341E-002,6.043341E-002,6.043341E-002,6.043341E-002,6.043341E-002,
   **   ~~~   ** Air System Named = CENTRAL SYSTEM did not converge for energy
   **   ~~~   ** Check values should be zero. Most Recent values listed first.
   **   ~~~   ** Demand-to-Supply interface energy check value iteration history trace: 1195.636503,1195.636503,1195.636503,1195.636503,1195.636503,1195.636503,1195.636502,1195.636502,1195.636502,1195.636502,
   **   ~~~   ** Supply-to-demand interface deck 1 energy check value iteration history trace: 2048.058452,2048.058452,2048.058452,2048.058451,2048.058451,2048.058451,2048.058451,2048.058451,2048.058451,2048.058451,
   ** Warning ** SimHVAC: Maximum iterations (20) exceeded for all HVAC loops, at ANNUAL, 02/03 20:45 - 21:00
   **   ~~~   ** The solution for one or more of the Air Loop HVAC systems did not appear to converge
   **   ~~~   ** Air System Named = CENTRAL SYSTEM did not converge for mass flow rate
   **   ~~~   ** Check values should be zero. Most Recent values listed first.
   **   ~~~   ** Demand-to-Supply interface mass flow rate check value iteration history trace: 6.657047E-002,6.657047E-002,6.657047E-002,6.657047E-002,6.657047E-002,6.657047E-002,6.657047E-002,6.657047E-002,6.657047E-002,6.657047E-002,
   **   ~~~   ** Supply-to-demand interface deck 1 mass flow rate check value iteration history trace: 6.657047E-002,6.657047E-002,6.657047E-002,6.657047E-002,6.657047E-002,6.657047E-002,6.657047E-002,6.657047E-002,6.657047E-002,6.657047E-002,
   **   ~~~   ** Air System Named = CENTRAL SYSTEM did not converge for energy
   **   ~~~   ** Check values should be zero. Most Recent values listed first.
   **   ~~~   ** Demand-to-Supply interface energy check value iteration history trace: 1307.810354,1307.810354,1307.810354,1307.810354,1307.810354,1307.810354,1307.810354,1307.810353,1307.810353,1307.810353,
   **   ~~~   ** Supply-to-demand interface deck 1 energy check value iteration history trace: 2199.858505,2199.858505,2199.858505,2199.858505,2199.858504,2199.858504,2199.858504,2199.858504,2199.858504,2199.858504,
   ** Warning ** SimHVAC: Maximum iterations (20) exceeded for all HVAC loops, at ANNUAL, 02/25 18:45 - 19:00
   **   ~~~   ** The solution for one or more of the Air Loop HVAC systems did not appear to converge
   **   ~~~   ** Air System Named = CENTRAL SYSTEM did not converge for mass flow rate
   **   ~~~   ** Check values should be zero. Most Recent values listed first.
   **   ~~~   ** Demand-to-Supply interface mass flow rate check value iteration history trace: 7.074120E-002,7.074120E-002,7.074120E-002,7.074120E-002,7.074120E-002,7.074120E-002,7.074120E-002,7.074120E-002,7.074120E-002,7.074120E-002,
   **   ~~~   ** Supply-to-demand interface deck 1 mass flow rate check value iteration history trace: 7.074120E-002,7.074120E-002,7.074120E-002,7.074120E-002,7.074120E-002,7.074120E-002,7.074120E-002,7.074120E-002,7.074120E-002,7.074120E-002,
   **   ~~~   ** Air System Named = CENTRAL SYSTEM did not converge for energy
   **   ~~~   ** Check values should be zero. Most Recent values listed first.
   **   ~~~   ** Demand-to-Supply interface energy check value iteration history trace: 1398.826311,1398.826311,1398.826311,1398.826311,1398.826311,1398.826311,1398.826311,1398.826311,1398.826311,1398.826311,
   **   ~~~   ** Supply-to-demand interface deck 1 energy check value iteration history trace: 2383.198211,2383.198211,2383.198211,2383.198211,2383.198211,2383.198211,2383.198211,2383.198210,2383.198210,2383.198210,
   ** Warning ** SimHVAC: Maximum iterations (20) exceeded for all HVAC loops, at ANNUAL, 03/19 18:00 - 18:15
   **   ~~~   ** The solution for one or more of the Air Loop HVAC systems did not appear to converge
   **   ~~~   ** Air System Named = CENTRAL SYSTEM did not converge for mass flow rate
   **   ~~~   ** Check values should be zero. Most Recent values listed first.
   **   ~~~   ** Demand-to-Supply interface mass flow rate check value iteration history trace: 3.644266E-002,3.644266E-002,3.644266E-002,3.644266E-002,3.644266E-002,3.644266E-002,3.644266E-002,3.644266E-002,3.644266E-002,3.644266E-002,
   **   ~~~   ** Supply-to-demand interface deck 1 mass flow rate check value iteration history trace: 3.644266E-002,3.644266E-002,3.644266E-002,3.644266E-002,3.644266E-002,3.644266E-002,3.644266E-002,3.644266E-002,3.644266E-002,3.644266E-002,
   **   ~~~   ** Air System Named = CENTRAL SYSTEM did not converge for energy
   **   ~~~   ** Check values should be zero. Most Recent values listed first.
   **   ~~~   ** Demand-to-Supply interface energy check value iteration history trace: 721.622944,721.622944,721.622944,721.622944,721.622944,721.622944,721.622944,721.622944,721.622944,721.622943,
   **   ~~~   ** Supply-to-demand interface deck 1 energy check value iteration history trace: 1246.648619,1246.648619,1246.648619,1246.648619,1246.648619,1246.648619,1246.648619,1246.648619,1246.648619,1246.648619,
   ** Warning ** SimHVAC: Maximum iterations (20) exceeded for all HVAC loops, at ANNUAL, 03/19 20:30 - 20:38
   **   ~~~   ** The solution for one or more of the Air Loop HVAC systems did not appear to converge
   **   ~~~   ** Air System Named = CENTRAL SYSTEM did not converge for mass flow rate
   **   ~~~   ** Check values should be zero. Most Recent values listed first.
   **   ~~~   ** Demand-to-Supply interface mass flow rate check value iteration history trace: 7.122424E-002,7.122424E-002,7.122424E-002,7.122424E-002,7.122424E-002,7.122424E-002,7.122424E-002,7.122424E-002,7.122424E-002,7.122424E-002,
   **   ~~~   ** Supply-to-demand interface deck 1 mass flow rate check value iteration history trace: 7.122424E-002,7.122424E-002,7.122424E-002,7.122424E-002,7.122424E-002,7.122424E-002,7.122424E-002,7.122424E-002,7.122424E-002,7.122424E-002,
   **   ~~~   ** Air System Named = CENTRAL SYSTEM did not converge for energy
   **   ~~~   ** Check values should be zero. Most Recent values listed first.
   **   ~~~   ** Demand-to-Supply interface energy check value iteration history trace: 1412.228653,1412.228653,1412.228653,1412.228653,1412.228653,1412.228652,1412.228652,1412.228652,1412.228652,1412.228652,
   **   ~~~   ** Supply-to-demand interface deck 1 energy check value iteration history trace: 2384.635352,2384.635352,2384.635351,2384.635351,2384.635351,2384.635351,2384.635351,2384.635351,2384.635351,2384.635351,
   ** Warning ** SimHVAC: Maximum iterations (20) exceeded for all HVAC loops, at ANNUAL, 03/22 09:00 - 09:02
   **   ~~~   ** The solution for one or more of the Air Loop HVAC systems did not appear to converge
   **   ~~~   ** Air System Named = CENTRAL SYSTEM did not converge for mass flow rate
   **   ~~~   ** Check values should be zero. Most Recent values listed first.
   **   ~~~   ** Demand-to-Supply interface mass flow rate check value iteration history trace: 8.374115E-002,8.374115E-002,8.374115E-002,8.374115E-002,8.374115E-002,8.374115E-002,8.374115E-002,8.374115E-002,8.374115E-002,8.374115E-002,
   **   ~~~   ** Supply-to-demand interface deck 1 mass flow rate check value iteration history trace: 8.374115E-002,8.374115E-002,8.374115E-002,8.374115E-002,8.374115E-002,8.374115E-002,8.374115E-002,8.374115E-002,8.374115E-002,8.374115E-002,
   **   ~~~   ** Air System Named = CENTRAL SYSTEM did not converge for energy
   **   ~~~   ** Check values should be zero. Most Recent values listed first.
   **   ~~~   ** Demand-to-Supply interface energy check value iteration history trace: 1659.455764,1659.455764,1659.455764,1659.455764,1659.455764,1659.455764,1659.455764,1659.455764,1659.455764,1659.455763,
   **   ~~~   ** Supply-to-demand interface deck 1 energy check value iteration history trace: 2768.969330,2768.969330,2768.969330,2768.969330,2768.969329,2768.969329,2768.969329,2768.969329,2768.969329,2768.969329,
   ** Warning ** SimHVAC: Maximum iterations (20) exceeded for all HVAC loops, at ANNUAL, 04/05 10:00 - 10:15
   **   ~~~   ** The solution for one or more of the Air Loop HVAC systems did not appear to converge
   **   ~~~   ** Air System Named = CENTRAL SYSTEM did not converge for mass flow rate
   **   ~~~   ** Check values should be zero. Most Recent values listed first.
   **   ~~~   ** Demand-to-Supply interface mass flow rate check value iteration history trace: 5.381815E-002,5.381815E-002,5.381815E-002,5.381815E-002,5.381815E-002,5.381815E-002,5.381815E-002,5.381815E-002,5.381815E-002,5.381815E-002,
   **   ~~~   ** Supply-to-demand interface deck 1 mass flow rate check value iteration history trace: 5.381815E-002,5.381815E-002,5.381815E-002,5.381815E-002,5.381815E-002,5.381815E-002,5.381815E-002,5.381815E-002,5.381815E-002,5.381815E-002,
   **   ~~~   ** Air System Named = CENTRAL SYSTEM did not converge for energy
   **   ~~~   ** Check values should be zero. Most Recent values listed first.
   **   ~~~   ** Demand-to-Supply interface energy check value iteration history trace: 1066.249955,1066.249955,1066.249954,1066.249954,1066.249954,1066.249954,1066.249954,1066.249954,1066.249954,1066.249954,
   **   ~~~   ** Supply-to-demand interface deck 1 energy check value iteration history trace: 1942.139268,1942.139268,1942.139268,1942.139268,1942.139268,1942.139268,1942.139267,1942.139267,1942.139267,1942.139267,
   ** Warning ** SimHVAC: Maximum iterations (20) exceeded for all HVAC loops, at ANNUAL, 04/05 10:00 - 10:08
   **   ~~~   ** The solution for one or more of the Air Loop HVAC systems did not appear to converge
   **   ~~~   ** Air System Named = CENTRAL SYSTEM did not converge for mass flow rate
   **   ~~~   ** Check values should be zero. Most Recent values listed first.
   **   ~~~   ** Demand-to-Supply interface mass flow rate check value iteration history trace: 5.419294E-002,5.419294E-002,5.419294E-002,5.419294E-002,5.419294E-002,5.419294E-002,5.419294E-002,5.419294E-002,5.419294E-002,5.419294E-002,
   **   ~~~   ** Supply-to-demand interface deck 1 mass flow rate check value iteration history trace: 5.419294E-002,5.419294E-002,5.419294E-002,5.419294E-002,5.419294E-002,5.419294E-002,5.419294E-002,5.419294E-002,5.419294E-002,5.419294E-002,
   **   ~~~   ** Air System Named = CENTRAL SYSTEM did not converge for energy
   **   ~~~   ** Check values should be zero. Most Recent values listed first.
   **   ~~~   ** Demand-to-Supply interface energy check value iteration history trace: 1073.675267,1073.675267,1073.675267,1073.675266,1073.675266,1073.675266,1073.675266,1073.675266,1073.675266,1073.675266,
   **   ~~~   ** Supply-to-demand interface deck 1 energy check value iteration history trace: 1955.662906,1955.662905,1955.662905,1955.662905,1955.662905,1955.662905,1955.662905,1955.662905,1955.662905,1955.662905,
   ** Warning ** SimHVAC: Maximum iterations (20) exceeded for all HVAC loops, at ANNUAL, 04/21 12:38 - 12:45
   **   ~~~   ** The solution for one or more of the Air Loop HVAC systems did not appear to converge
   **   ~~~   ** Air System Named = CENTRAL SYSTEM did not converge for mass flow rate
   **   ~~~   ** Check values should be zero. Most Recent values listed first.
   **   ~~~   ** Demand-to-Supply interface mass flow rate check value iteration history trace: 5.736868E-002,5.736868E-002,5.736868E-002,5.736868E-002,5.736868E-002,5.736868E-002,5.736868E-002,5.736868E-002,5.736868E-002,5.736868E-002,
   **   ~~~   ** Supply-to-demand interface deck 1 mass flow rate check value iteration history trace: 5.736868E-002,5.736868E-002,5.736868E-002,5.736868E-002,5.736868E-002,5.736868E-002,5.736868E-002,5.736868E-002,5.736868E-002,5.736868E-002,
   **   ~~~   ** Air System Named = CENTRAL SYSTEM did not converge for energy
   **   ~~~   ** Check values should be zero. Most Recent values listed first.
   **   ~~~   ** Demand-to-Supply interface energy check value iteration history trace: 1142.063192,1142.063192,1142.063192,1142.063192,1142.063192,1142.063192,1142.063192,1142.063192,1142.063192,1142.063192,
   **   ~~~   ** Supply-to-demand interface deck 1 energy check value iteration history trace: 2014.843393,2014.843393,2014.843393,2014.843393,2014.843393,2014.843393,2014.843393,2014.843393,2014.843392,2014.843392,
   ** Warning ** SimHVAC: Maximum iterations (20) exceeded for all HVAC loops, at ANNUAL, 05/07 08:15 - 08:30
   **   ~~~   ** The solution for one or more of the Air Loop HVAC systems did not appear to converge
   **   ~~~   ** Air System Named = CENTRAL SYSTEM did not converge for mass flow rate
   **   ~~~   ** Check values should be zero. Most Recent values listed first.
   **   ~~~   ** Demand-to-Supply interface mass flow rate check value iteration history trace: 5.955476E-002,5.955476E-002,5.955476E-002,5.955476E-002,5.955476E-002,5.955476E-002,5.955476E-002,5.955476E-002,5.955476E-002,5.955476E-002,
   **   ~~~   ** Supply-to-demand interface deck 1 mass flow rate check value iteration history trace: 5.955476E-002,5.955476E-002,5.955476E-002,5.955476E-002,5.955476E-002,5.955476E-002,5.955476E-002,5.955476E-002,5.955476E-002,5.955476E-002,
   **   ~~~   ** Air System Named = CENTRAL SYSTEM did not converge for energy
   **   ~~~   ** Check values should be zero. Most Recent values listed first.
   **   ~~~   ** Demand-to-Supply interface energy check value iteration history trace: 1178.752616,1178.752615,1178.752615,1178.752615,1178.752615,1178.752615,1178.752615,1178.752615,1178.752615,1178.752615,
   **   ~~~   ** Supply-to-demand interface deck 1 energy check value iteration history trace: 2064.117941,2064.117941,2064.117941,2064.117941,2064.117941,2064.117940,2064.117940,2064.117940,2064.117940,2064.117940,
   ** Warning ** SimHVAC: Maximum iterations (20) exceeded for all HVAC loops, at ANNUAL, 05/12 08:36 - 08:39
   **   ~~~   ** The solution for one or more of the Air Loop HVAC systems did not appear to converge
   **   ~~~   ** Air System Named = CENTRAL SYSTEM did not converge for mass flow rate
   **   ~~~   ** Check values should be zero. Most Recent values listed first.
   **   ~~~   ** Demand-to-Supply interface mass flow rate check value iteration history trace: 6.318026E-002,6.318026E-002,6.318026E-002,6.318026E-002,6.318026E-002,6.318026E-002,6.318026E-002,6.318026E-002,6.318026E-002,6.318026E-002,
   **   ~~~   ** Supply-to-demand interface deck 1 mass flow rate check value iteration history trace: 6.318026E-002,6.318026E-002,6.318026E-002,6.318026E-002,6.318026E-002,6.318026E-002,6.318026E-002,6.318026E-002,6.318026E-002,6.318026E-002,
   **   ~~~   ** Air System Named = CENTRAL SYSTEM did not converge for energy
   **   ~~~   ** Check values should be zero. Most Recent values listed first.
   **   ~~~   ** Demand-to-Supply interface energy check value iteration history trace: 1245.140420,1245.140420,1245.140419,1245.140419,1245.140419,1245.140419,1245.140419,1245.140419,1245.140419,1245.140419,
   **   ~~~   ** Supply-to-demand interface deck 1 energy check value iteration history trace: 2215.409861,2215.409861,2215.409861,2215.409861,2215.409860,2215.409860,2215.409860,2215.409860,2215.409860,2215.409860,
   ** Warning ** SimHVAC: Maximum iterations (20) exceeded for all HVAC loops, at ANNUAL, 05/17 23:15 - 23:30
   **   ~~~   ** The solution for one or more of the Air Loop HVAC systems did not appear to converge
   **   ~~~   ** Air System Named = CENTRAL SYSTEM did not converge for mass flow rate
   **   ~~~   ** Check values should be zero. Most Recent values listed first.
   **   ~~~   ** Demand-to-Supply interface mass flow rate check value iteration history trace: 0.114994,0.114994,0.114994,0.114994,0.114994,0.114994,0.114994,0.114994,0.114994,0.114994,
   **   ~~~   ** Supply-to-demand interface deck 1 mass flow rate check value iteration history trace: 0.114994,0.114994,0.114994,0.114994,0.114994,0.114994,0.114994,0.114994,0.114994,0.114994,
   **   ~~~   ** Air System Named = CENTRAL SYSTEM did not converge for energy
   **   ~~~   ** Check values should be zero. Most Recent values listed first.
   **   ~~~   ** Demand-to-Supply interface energy check value iteration history trace: 2904.592042,2904.592042,2904.592043,2904.592043,2904.592044,2904.592044,2904.592045,2904.592045,2904.592046,2904.592046,
   **   ~~~   ** Supply-to-demand interface deck 1 energy check value iteration history trace: 1356.472494,1356.472494,1356.472495,1356.472495,1356.472495,1356.472495,1356.472496,1356.472496,1356.472496,1356.472496,
   ** Warning ** SimHVAC: Maximum iterations (20) exceeded for all HVAC loops, at ANNUAL, 06/03 12:23 - 12:30
   **   ~~~   ** The solution for one or more of the Air Loop HVAC systems did not appear to converge
   **   ~~~   ** Air System Named = CENTRAL SYSTEM did not converge for energy
   **   ~~~   ** Check values should be zero. Most Recent values listed first.
   **   ~~~   ** Demand-to-Supply interface energy check value iteration history trace: 75.862926,75.862926,75.862926,75.862926,75.862926,75.862926,75.862926,75.862926,75.862926,75.862926,
   **   ~~~   ** Supply-to-demand interface deck 1 energy check value iteration history trace: 34.761115,34.761115,34.761115,34.761115,34.761115,34.761115,34.761115,34.761115,34.761115,34.761115,
   ************* Simulation Error Summary *************
   ** Warning ** The following Report Variables were requested but not generated -- check.rdd file
   **   ~~~   ** Either the IDF did not contain these elements, the variable name is misspelled,
   **   ~~~   ** or the requested variable is an advanced output which requires Output : Diagnostics, DisplayAdvancedReportVariables;
   ************* Key=*, VarName=BASEBOARD TOTAL HEATING ENERGY, Frequency=
   ************* Key=*, VarName=WATER HEATER NATURALGAS ENERGY, Frequency=
   ************* Key=*, VarName=COOLING COIL TOTAL HEATING ENERGY, Frequency=
   ************* There are 34 unused schedules in input.
   ************* There are 388 unused week schedules in input.
   ************* There are 397 unused day schedules in input.
   ************* Use Output:Diagnostics,DisplayUnusedSchedules; to see them.
   *************
   ************* ===== Recurring Error Summary =====
   ************* The following recurring error messages occurred.
   *************
   *************  ** Warning ** "TOTAL HOT WATER LOAD" - Target water temperature should be less than or equal to the hot water temperature error continues...
   *************  **   ~~~   **   This error occurred 93783 total times;
   *************  **   ~~~   **   during Warmup 0 times;
   *************  **   ~~~   **   during Sizing 0 times.
   *************  **   ~~~   **   Max=9.60187  Min=1.749471E-003
   *************
   *************  ** Warning ** SimHVAC: Exceeding Maximum iterations for all HVAC loops, during ANNUAL continues
   *************  **   ~~~   **   This error occurred 6 total times;
   *************  **   ~~~   **   during Warmup 0 times;
   *************  **   ~~~   **   during Sizing 0 times.
   *************
   *************
   ************* ===== Final Error Summary =====
   ************* The following error categories occurred.  Consider correcting or noting.
   ************* Nominally Unused Constructions
   ************* ..The nominally unused constructions warning is provided to alert you to potential conditions that can cause
   ************* ..extra time during simulation. Each construction is calculated by the algorithm indicated in the HeatBalanceAlgorithm
   ************* ..object. You may remove the constructions indicated (when you use the DisplayExtraWarnings option).
   *************
   ************* EnergyPlus Warmup Error Summary. During Warmup: 1 Warning; 0 Severe Errors.
   ************* EnergyPlus Sizing Error Summary. During Sizing: 4 Warning; 0 Severe Errors.
   ************* EnergyPlus Completed Successfully-- 93820 Warning; 0 Severe Errors; Elapsed Time=00hr 01min 25.43sec
