Program Version,EnergyPlus, Version 22.2.0-c249759bad, YMD=2023.09.01 18:56,
   ************* Beginning Zone Sizing Calculations
   ** Warning ** ProcessScheduleInput: Schedule:Constant="ALWAYS ON DISCRETE", Schedule Type Limits Name="ONOFF" not found -- will not be validated
   ** Warning ** Foundation:Kiva="KIVA FOUNDATION", no Interior Horizontal Insulation Material Name defined
   **   ~~~   ** Interior Horizontal Insulation Depth will not be used.
   ** Warning ** CheckUsedConstructions: There are 15 nominally unused constructions in input.
   **   ~~~   ** Each Unused construction is shown.
   ************* Construction=INTERIOR FLOOR
   ************* Construction=INTERIOR WINDOW
   ************* Construction=EXTERIOR DOOR
   ************* Construction=INTERIOR DOOR
   ************* Construction=GABLE CONSTRUCTION
   ************* Construction=CRAWL_FLOOR
   ************* Construction=INSULATED PIPE
   ************* Construction=PLAIN PIPE
   ************* Construction=TDD PIPE
   ************* Construction=TDD DOME
   ************* Construction=TDD DIFFUSER
   ************* Construction=CRAWL WALL
   ************* Construction=CEILING-FLOOR-LAYER
   ************* Construction=SLAB CONSTRUCTION W FULL R10 INSULATION
   ************* Construction=SLAB CONSTRUCTION W FULL R5 INSULATION
   ** Warning ** GetDXCoils: Coil:Heating:DX:SingleSpeed="DX_HEATING_COIL" curve values
   **   ~~~   ** ... Defrost Energy Input Ratio Function of Temperature Curve Name = DEFROSTEIR output is not equal to 1.0 (+ or - 10%) at rated conditions.
   **   ~~~   ** ... Curve output at rated conditions = 0.152
   ************* Beginning System Sizing Calculations
   ************* Beginning Plant Sizing Calculations
   ** Warning ** SizeDXCoil Coil:Cooling:DX:SingleSpeed DX_COOLING_COIL
   **   ~~~   ** ...Gross Rated Total Cooling Capacity [W] will be limited by the maximum rated volume flow per rated total capacity ratio.
   **   ~~~   ** ...DX coil volume flow rate ( m3/s ) = 0.437091
   **   ~~~   ** ...Requested capacity ( W ) = 7115.058
   **   ~~~   ** ...Requested flow/capacity ratio ( m3/s/W ) = 6.143E-005
   **   ~~~   ** ...Maximum flow/capacity ratio ( m3/s/W ) = 6.041E-005
   **   ~~~   ** ...Adjusted capacity ( W ) = 7235.409
   ** Warning ** Coil:WaterHeating:AirToWaterHeatPump:Wrapped "HEAT PUMP WATER HEATER EVAPORATOR": Rated air volume flow rate per watt of rated total water heating capacity is out of range
   **   ~~~   ** Min Rated Vol Flow Per Watt=[4.027E-005], Rated Vol Flow Per Watt=[1.510E-004], Max Rated Vol Flow Per Watt=[8.056E-005]. See Input-Output Reference Manual for valid range.
   ************* SizeFan: : Potential issue with equipment sizing for Fan:OnOff HEAT PUMP WATER HEATER FAN
   **   ~~~   ** User-Specified Maximum Flow Rate [m3/s] = 0.22653
   **   ~~~   ** differs from Design Size Maximum Flow Rate [m3/s] = 7.55250E-002
   **   ~~~   ** This may, or may not, indicate mismatched component sizes.
   **   ~~~   ** Verify that the value entered is intended and is consistent with other components.
   ** Warning ** Water heater = WATER HEATER TANK:  Recovery Efficiency and Energy Factor could not be calculated during the test for standard ratings
   **   ~~~   ** Setpoint was never recovered and/or heater never turned on
   ** Warning ** Check input. Pump nominal power or motor efficiency is set to 0, for pump=MAINS PRESSURE
   ** Warning ** Output:Meter: invalid Key Name="ELECTRIC_RANGE:INTERIOREQUIPMENT:ELECTRICITY" - not found.
   ** Warning ** Output:Meter: invalid Key Name="ELECTRIC_DRYER:INTERIOREQUIPMENT:ELECTRICITY" - not found.
   ** Warning ** Output:Meter: invalid Key Name="HEATRECOVERY:ELECTRICITY" - not found.
   ** Warning ** Output:Meter: invalid Key Name="HEATING:NATURALGAS" - not found.
   ** Warning ** Output:Meter: invalid Key Name="WATERSYSTEMS:NATURALGAS" - not found.
   ** Warning ** Output:Meter: invalid Key Name="PROPANE:FACILITY" - not found.
   ** Warning ** Output:Meter: invalid Key Name="HEATING:PROPANE" - not found.
   ************* Testing Individual Branch Integrity
   ************* All Branches passed integrity testing
   ************* Testing Individual Supply Air Path Integrity
   ************* All Supply Air Paths passed integrity testing
   ************* Testing Individual Return Air Path Integrity
   ************* All Return Air Paths passed integrity testing
   ************* No node connection errors were found.
   ************* Beginning Simulation
   ** Warning ** AirflowNetwork::Solver::validate_distribution: Heat pump water heater is simulated along with an AirflowNetwork but is not included in the AirflowNetwork.
   ** Warning ** CalcEquipmentFlowRates: "TOTAL HOT WATER LOAD" - Target water temperature is greater than the hot water temperature by (0.77 C)
   **   ~~~   **  Environment=EXTREME_WINTER, at Simulation time=01/13 03:45 - 04:00
   **   ~~~   ** ...target water temperature     = 53.33 C
   **   ~~~   ** ...hot water temperature        = 52.57 C
   **   ~~~   ** ...Target water temperature should be less than or equal to the hot water temperature. Verify temperature setpoints and schedules.
   ** Warning ** SimHVAC: Maximum iterations (20) exceeded for all HVAC loops, at ANNUAL, 01/06 11:24 - 11:27
   **   ~~~   ** The solution for one or more of the Air Loop HVAC systems did not appear to converge
   **   ~~~   ** Air System Named = CENTRAL SYSTEM did not converge for mass flow rate
   **   ~~~   ** Check values should be zero. Most Recent values listed first.
   **   ~~~   ** Demand-to-Supply interface mass flow rate check value iteration history trace: 8.294192E-002,8.294192E-002,8.294192E-002,8.294192E-002,8.294192E-002,8.294192E-002,8.294192E-002,8.294192E-002,8.294192E-002,8.294192E-002,
   **   ~~~   ** Supply-to-demand interface deck 1 mass flow rate check value iteration history trace: 8.294192E-002,8.294192E-002,8.294192E-002,8.294192E-002,8.294192E-002,8.294192E-002,8.294192E-002,8.294192E-002,8.294192E-002,8.294192E-002,
   **   ~~~   ** Air System Named = CENTRAL SYSTEM did not converge for energy
   **   ~~~   ** Check values should be zero. Most Recent values listed first.
   **   ~~~   ** Demand-to-Supply interface energy check value iteration history trace: 1639.596999,1639.596999,1639.596999,1639.596999,1639.596999,1639.596999,1639.596999,1639.596998,1639.596998,1639.596998,
   **   ~~~   ** Supply-to-demand interface deck 1 energy check value iteration history trace: 2554.019813,2554.019813,2554.019813,2554.019813,2554.019813,2554.019813,2554.019812,2554.019812,2554.019812,2554.019812,
   ** Warning ** SimHVAC: Maximum iterations (20) exceeded for all HVAC loops, at ANNUAL, 03/15 09:00 - 09:02
   **   ~~~   ** The solution for one or more of the Air Loop HVAC systems did not appear to converge
   **   ~~~   ** Air System Named = CENTRAL SYSTEM did not converge for mass flow rate
   **   ~~~   ** Check values should be zero. Most Recent values listed first.
   **   ~~~   ** Demand-to-Supply interface mass flow rate check value iteration history trace: 6.741147E-002,6.741147E-002,6.741147E-002,6.741147E-002,6.741147E-002,6.741147E-002,6.741147E-002,6.741147E-002,6.741147E-002,6.741147E-002,
   **   ~~~   ** Supply-to-demand interface deck 1 mass flow rate check value iteration history trace: 6.741147E-002,6.741147E-002,6.741147E-002,6.741147E-002,6.741147E-002,6.741147E-002,6.741147E-002,6.741147E-002,6.741147E-002,6.741147E-002,
   **   ~~~   ** Air System Named = CENTRAL SYSTEM did not converge for energy
   **   ~~~   ** Check values should be zero. Most Recent values listed first.
   **   ~~~   ** Demand-to-Supply interface energy check value iteration history trace: 1335.892037,1335.892037,1335.892037,1335.892037,1335.892037,1335.892037,1335.892037,1335.892037,1335.892037,1335.892037,
   **   ~~~   ** Supply-to-demand interface deck 1 energy check value iteration history trace: 2366.837634,2366.837634,2366.837634,2366.837634,2366.837634,2366.837634,2366.837634,2366.837634,2366.837634,2366.837634,
   ** Warning ** SimHVAC: Maximum iterations (20) exceeded for all HVAC loops, at ANNUAL, 04/17 06:15 - 06:30
   **   ~~~   ** The solution for one or more of the Air Loop HVAC systems did not appear to converge
   **   ~~~   ** Air System Named = CENTRAL SYSTEM did not converge for mass flow rate
   **   ~~~   ** Check values should be zero. Most Recent values listed first.
   **   ~~~   ** Demand-to-Supply interface mass flow rate check value iteration history trace: 7.358730E-002,7.358730E-002,7.358730E-002,7.358730E-002,7.358730E-002,7.358730E-002,7.358730E-002,7.358730E-002,7.358730E-002,7.358730E-002,
   **   ~~~   ** Supply-to-demand interface deck 1 mass flow rate check value iteration history trace: 7.358730E-002,7.358730E-002,7.358730E-002,7.358730E-002,7.358730E-002,7.358730E-002,7.358730E-002,7.358730E-002,7.358730E-002,7.358730E-002,
   **   ~~~   ** Air System Named = CENTRAL SYSTEM did not converge for energy
   **   ~~~   ** Check values should be zero. Most Recent values listed first.
   **   ~~~   ** Demand-to-Supply interface energy check value iteration history trace: 1457.966340,1457.966340,1457.966340,1457.966339,1457.966339,1457.966339,1457.966339,1457.966339,1457.966339,1457.966339,
   **   ~~~   ** Supply-to-demand interface deck 1 energy check value iteration history trace: 2514.555276,2514.555276,2514.555276,2514.555276,2514.555276,2514.555276,2514.555276,2514.555276,2514.555275,2514.555275,
   ** Warning ** SimHVAC: Maximum iterations (20) exceeded for all HVAC loops, at ANNUAL, 04/17 08:25 - 08:27
   **   ~~~   ** The solution for one or more of the Air Loop HVAC systems did not appear to converge
   **   ~~~   ** Air System Named = CENTRAL SYSTEM did not converge for mass flow rate
   **   ~~~   ** Check values should be zero. Most Recent values listed first.
   **   ~~~   ** Demand-to-Supply interface mass flow rate check value iteration history trace: 5.635601E-002,5.635601E-002,5.635601E-002,5.635601E-002,5.635601E-002,5.635601E-002,5.635601E-002,5.635601E-002,5.635601E-002,5.635601E-002,
   **   ~~~   ** Supply-to-demand interface deck 1 mass flow rate check value iteration history trace: 5.635601E-002,5.635601E-002,5.635601E-002,5.635601E-002,5.635601E-002,5.635601E-002,5.635601E-002,5.635601E-002,5.635601E-002,5.635601E-002,
   **   ~~~   ** Air System Named = CENTRAL SYSTEM did not converge for energy
   **   ~~~   ** Check values should be zero. Most Recent values listed first.
   **   ~~~   ** Demand-to-Supply interface energy check value iteration history trace: 1113.961600,1113.961600,1113.961600,1113.961600,1113.961600,1113.961600,1113.961600,1113.961600,1113.961600,1113.961600,
   **   ~~~   ** Supply-to-demand interface deck 1 energy check value iteration history trace: 2007.710202,2007.710202,2007.710202,2007.710202,2007.710202,2007.710202,2007.710202,2007.710202,2007.710202,2007.710202,
   ** Warning ** SimHVAC: Maximum iterations (20) exceeded for all HVAC loops, at ANNUAL, 04/24 09:10 - 09:15
   **   ~~~   ** The solution for one or more of the Air Loop HVAC systems did not appear to converge
   **   ~~~   ** Air System Named = CENTRAL SYSTEM did not converge for mass flow rate
   **   ~~~   ** Check values should be zero. Most Recent values listed first.
   **   ~~~   ** Demand-to-Supply interface mass flow rate check value iteration history trace: 4.651306E-002,4.651306E-002,4.651306E-002,4.651306E-002,4.651306E-002,4.651306E-002,4.651306E-002,4.651306E-002,4.651306E-002,4.651306E-002,
   **   ~~~   ** Supply-to-demand interface deck 1 mass flow rate check value iteration history trace: 4.651306E-002,4.651306E-002,4.651306E-002,4.651306E-002,4.651306E-002,4.651306E-002,4.651306E-002,4.651306E-002,4.651306E-002,4.651306E-002,
   **   ~~~   ** Air System Named = CENTRAL SYSTEM did not converge for energy
   **   ~~~   ** Check values should be zero. Most Recent values listed first.
   **   ~~~   ** Demand-to-Supply interface energy check value iteration history trace: 921.742283,921.742283,921.742283,921.742283,921.742283,921.742283,921.742283,921.742283,921.742283,921.742283,
   **   ~~~   ** Supply-to-demand interface deck 1 energy check value iteration history trace: 1614.265639,1614.265639,1614.265639,1614.265639,1614.265639,1614.265639,1614.265639,1614.265639,1614.265638,1614.265638,
   ** Warning ** SimHVAC: Maximum iterations (20) exceeded for all HVAC loops, at ANNUAL, 05/02 06:45 - 06:48
   **   ~~~   ** The solution for one or more of the Air Loop HVAC systems did not appear to converge
   **   ~~~   ** Air System Named = CENTRAL SYSTEM did not converge for mass flow rate
   **   ~~~   ** Check values should be zero. Most Recent values listed first.
   **   ~~~   ** Demand-to-Supply interface mass flow rate check value iteration history trace: 6.535786E-002,6.535786E-002,6.535786E-002,6.535786E-002,6.535786E-002,6.535786E-002,6.535786E-002,6.535786E-002,6.535786E-002,6.535786E-002,
   **   ~~~   ** Supply-to-demand interface deck 1 mass flow rate check value iteration history trace: 6.535786E-002,6.535786E-002,6.535786E-002,6.535786E-002,6.535786E-002,6.535786E-002,6.535786E-002,6.535786E-002,6.535786E-002,6.535786E-002,
   **   ~~~   ** Air System Named = CENTRAL SYSTEM did not converge for energy
   **   ~~~   ** Check values should be zero. Most Recent values listed first.
   **   ~~~   ** Demand-to-Supply interface energy check value iteration history trace: 1295.134252,1295.134252,1295.134252,1295.134252,1295.134252,1295.134252,1295.134252,1295.134252,1295.134252,1295.134252,
   **   ~~~   ** Supply-to-demand interface deck 1 energy check value iteration history trace: 2246.988818,2246.988818,2246.988818,2246.988818,2246.988818,2246.988818,2246.988817,2246.988817,2246.988817,2246.988817,
   ** Warning ** SimHVAC: Maximum iterations (20) exceeded for all HVAC loops, at ANNUAL, 05/08 07:08 - 07:15
   **   ~~~   ** The solution for one or more of the Air Loop HVAC systems did not appear to converge
   **   ~~~   ** Air System Named = CENTRAL SYSTEM did not converge for mass flow rate
   **   ~~~   ** Check values should be zero. Most Recent values listed first.
   **   ~~~   ** Demand-to-Supply interface mass flow rate check value iteration history trace: 6.908581E-002,6.908581E-002,6.908581E-002,6.908581E-002,6.908581E-002,6.908581E-002,6.908581E-002,6.908581E-002,6.908581E-002,6.908581E-002,
   **   ~~~   ** Supply-to-demand interface deck 1 mass flow rate check value iteration history trace: 6.908581E-002,6.908581E-002,6.908581E-002,6.908581E-002,6.908581E-002,6.908581E-002,6.908581E-002,6.908581E-002,6.908581E-002,6.908581E-002,
   **   ~~~   ** Air System Named = CENTRAL SYSTEM did not converge for energy
   **   ~~~   ** Check values should be zero. Most Recent values listed first.
   **   ~~~   ** Demand-to-Supply interface energy check value iteration history trace: 1633.078592,1633.078593,1633.078593,1633.078593,1633.078593,1633.078593,1633.078593,1633.078593,1633.078593,1633.078594,
   **   ~~~   ** Supply-to-demand interface deck 1 energy check value iteration history trace: 877.802179,877.802179,877.802179,877.802180,877.802180,877.802180,877.802180,877.802180,877.802180,877.802180,
   ** Warning ** SimHVAC: Maximum iterations (20) exceeded for all HVAC loops, at ANNUAL, 05/17 04:45 - 05:00
   **   ~~~   ** The solution for one or more of the Air Loop HVAC systems did not appear to converge
   **   ~~~   ** Air System Named = CENTRAL SYSTEM did not converge for mass flow rate
   **   ~~~   ** Check values should be zero. Most Recent values listed first.
   **   ~~~   ** Demand-to-Supply interface mass flow rate check value iteration history trace: 2.201931E-002,2.201931E-002,2.201931E-002,2.201931E-002,2.201931E-002,2.201931E-002,2.201931E-002,2.201931E-002,2.201931E-002,2.201931E-002,
   **   ~~~   ** Supply-to-demand interface deck 1 mass flow rate check value iteration history trace: 2.201931E-002,2.201931E-002,2.201931E-002,2.201931E-002,2.201931E-002,2.201931E-002,2.201931E-002,2.201931E-002,2.201931E-002,2.201931E-002,
   **   ~~~   ** Air System Named = CENTRAL SYSTEM did not converge for energy
   **   ~~~   ** Check values should be zero. Most Recent values listed first.
   **   ~~~   ** Demand-to-Supply interface energy check value iteration history trace: 411.518638,411.518638,411.518638,411.518638,411.518638,411.518638,411.518638,411.518638,411.518638,411.518637,
   **   ~~~   ** Supply-to-demand interface deck 1 energy check value iteration history trace: 708.990555,708.990554,708.990554,708.990554,708.990554,708.990554,708.990554,708.990554,708.990554,708.990554,
   ** Warning ** SimHVAC: Maximum iterations (20) exceeded for all HVAC loops, at ANNUAL, 05/21 02:23 - 02:30
   **   ~~~   ** The solution for one or more of the Air Loop HVAC systems did not appear to converge
   **   ~~~   ** Air System Named = CENTRAL SYSTEM did not converge for mass flow rate
   **   ~~~   ** Check values should be zero. Most Recent values listed first.
   **   ~~~   ** Demand-to-Supply interface mass flow rate check value iteration history trace: 9.906866E-002,9.906866E-002,9.906866E-002,9.906866E-002,9.906866E-002,9.906866E-002,9.906866E-002,9.906866E-002,9.906866E-002,9.906866E-002,
   **   ~~~   ** Supply-to-demand interface deck 1 mass flow rate check value iteration history trace: 9.906866E-002,9.906866E-002,9.906866E-002,9.906866E-002,9.906866E-002,9.906866E-002,9.906866E-002,9.906866E-002,9.906866E-002,9.906866E-002,
   **   ~~~   ** Air System Named = CENTRAL SYSTEM did not converge for energy
   **   ~~~   ** Check values should be zero. Most Recent values listed first.
   **   ~~~   ** Demand-to-Supply interface energy check value iteration history trace: 2442.903125,2442.903125,2442.903125,2442.903125,2442.903126,2442.903126,2442.903126,2442.903126,2442.903126,2442.903127,
   **   ~~~   ** Supply-to-demand interface deck 1 energy check value iteration history trace: 1355.013048,1355.013048,1355.013049,1355.013049,1355.013049,1355.013049,1355.013049,1355.013049,1355.013049,1355.013049,
   ** Warning ** SimHVAC: Maximum iterations (20) exceeded for all HVAC loops, at ANNUAL, 10/18 08:20 - 08:25
   **   ~~~   ** The solution for one or more of the Air Loop HVAC systems did not appear to converge
   **   ~~~   ** Air System Named = CENTRAL SYSTEM did not converge for mass flow rate
   **   ~~~   ** Check values should be zero. Most Recent values listed first.
   **   ~~~   ** Demand-to-Supply interface mass flow rate check value iteration history trace: 6.547902E-002,6.547902E-002,6.547902E-002,6.547902E-002,6.547902E-002,6.547902E-002,6.547902E-002,6.547902E-002,6.547902E-002,6.547902E-002,
   **   ~~~   ** Supply-to-demand interface deck 1 mass flow rate check value iteration history trace: 6.547902E-002,6.547902E-002,6.547902E-002,6.547902E-002,6.547902E-002,6.547902E-002,6.547902E-002,6.547902E-002,6.547902E-002,6.547902E-002,
   **   ~~~   ** Air System Named = CENTRAL SYSTEM did not converge for energy
   **   ~~~   ** Check values should be zero. Most Recent values listed first.
   **   ~~~   ** Demand-to-Supply interface energy check value iteration history trace: 1297.246321,1297.246321,1297.246321,1297.246321,1297.246321,1297.246321,1297.246321,1297.246320,1297.246320,1297.246320,
   **   ~~~   ** Supply-to-demand interface deck 1 energy check value iteration history trace: 2289.821303,2289.821303,2289.821303,2289.821303,2289.821303,2289.821303,2289.821303,2289.821303,2289.821302,2289.821302,
   ** Warning ** SimHVAC: Maximum iterations (20) exceeded for all HVAC loops, at ANNUAL, 10/21 09:20 - 09:22
   **   ~~~   ** The solution for one or more of the Air Loop HVAC systems did not appear to converge
   **   ~~~   ** Air System Named = CENTRAL SYSTEM did not converge for mass flow rate
   **   ~~~   ** Check values should be zero. Most Recent values listed first.
   **   ~~~   ** Demand-to-Supply interface mass flow rate check value iteration history trace: 0.375296,0.375296,0.375296,0.375296,0.375296,0.375296,0.375296,0.375296,0.375296,0.375296,
   **   ~~~   ** Supply-to-demand interface deck 1 mass flow rate check value iteration history trace: 0.375296,0.375296,0.375296,0.375296,0.375296,0.375296,0.375296,0.375296,0.375296,0.375296,
   **   ~~~   ** Air System Named = CENTRAL SYSTEM did not converge for energy
   **   ~~~   ** Check values should be zero. Most Recent values listed first.
   **   ~~~   ** Demand-to-Supply interface energy check value iteration history trace: 8916.250633,8916.250634,8916.250636,8916.250638,8916.250640,8916.250642,8916.250644,8916.250646,8916.250648,8916.250650,
   **   ~~~   ** Supply-to-demand interface deck 1 energy check value iteration history trace: 4329.209710,4329.209711,4329.209711,4329.209712,4329.209713,4329.209714,4329.209715,4329.209716,4329.209717,4329.209718,
   ** Warning ** SimHVAC: Maximum iterations (20) exceeded for all HVAC loops, at ANNUAL, 10/21 10:08 - 10:09
   **   ~~~   ** The solution for one or more of the Air Loop HVAC systems did not appear to converge
   **   ~~~   ** Air System Named = CENTRAL SYSTEM did not converge for mass flow rate
   **   ~~~   ** Check values should be zero. Most Recent values listed first.
   **   ~~~   ** Demand-to-Supply interface mass flow rate check value iteration history trace: 0.272874,0.272874,0.272874,0.272874,0.272874,0.272874,0.272874,0.272874,0.272874,0.272874,
   **   ~~~   ** Supply-to-demand interface deck 1 mass flow rate check value iteration history trace: 0.272874,0.272874,0.272874,0.272874,0.272874,0.272874,0.272874,0.272874,0.272874,0.272874,
   **   ~~~   ** Air System Named = CENTRAL SYSTEM did not converge for energy
   **   ~~~   ** Check values should be zero. Most Recent values listed first.
   **   ~~~   ** Demand-to-Supply interface energy check value iteration history trace: 6466.404865,6466.404866,6466.404867,6466.404869,6466.404870,6466.404871,6466.404873,6466.404874,6466.404875,6466.404877,
   **   ~~~   ** Supply-to-demand interface deck 1 energy check value iteration history trace: 3125.617151,3125.617152,3125.617152,3125.617153,3125.617154,3125.617154,3125.617155,3125.617156,3125.617156,3125.617157,
   ** Warning ** SimHVAC: Maximum iterations (20) exceeded for all HVAC loops, at ANNUAL, 10/26 09:06 - 09:09
   **   ~~~   ** The solution for one or more of the Air Loop HVAC systems did not appear to converge
   **   ~~~   ** Air System Named = CENTRAL SYSTEM did not converge for mass flow rate
   **   ~~~   ** Check values should be zero. Most Recent values listed first.
   **   ~~~   ** Demand-to-Supply interface mass flow rate check value iteration history trace: 5.142611E-002,5.142611E-002,5.142611E-002,5.142611E-002,5.142611E-002,5.142611E-002,5.142611E-002,5.142611E-002,5.142611E-002,5.142611E-002,
   **   ~~~   ** Supply-to-demand interface deck 1 mass flow rate check value iteration history trace: 5.142611E-002,5.142611E-002,5.142611E-002,5.142611E-002,5.142611E-002,5.142611E-002,5.142611E-002,5.142611E-002,5.142611E-002,5.142611E-002,
   **   ~~~   ** Air System Named = CENTRAL SYSTEM did not converge for energy
   **   ~~~   ** Check values should be zero. Most Recent values listed first.
   **   ~~~   ** Demand-to-Supply interface energy check value iteration history trace: 1013.695399,1013.695399,1013.695399,1013.695399,1013.695399,1013.695399,1013.695399,1013.695399,1013.695399,1013.695399,
   **   ~~~   ** Supply-to-demand interface deck 1 energy check value iteration history trace: 1785.116223,1785.116223,1785.116223,1785.116222,1785.116222,1785.116222,1785.116222,1785.116222,1785.116222,1785.116222,
   ** Warning ** SimHVAC: Maximum iterations (20) exceeded for all HVAC loops, at ANNUAL, 11/09 09:15 - 09:30
   **   ~~~   ** The solution for one or more of the Air Loop HVAC systems did not appear to converge
   **   ~~~   ** Air System Named = CENTRAL SYSTEM did not converge for mass flow rate
   **   ~~~   ** Check values should be zero. Most Recent values listed first.
   **   ~~~   ** Demand-to-Supply interface mass flow rate check value iteration history trace: 4.057512E-002,4.057512E-002,4.057512E-002,4.057512E-002,4.057512E-002,4.057512E-002,4.057512E-002,4.057512E-002,4.057512E-002,4.057512E-002,
   **   ~~~   ** Supply-to-demand interface deck 1 mass flow rate check value iteration history trace: 4.057512E-002,4.057512E-002,4.057512E-002,4.057512E-002,4.057512E-002,4.057512E-002,4.057512E-002,4.057512E-002,4.057512E-002,4.057512E-002,
   **   ~~~   ** Air System Named = CENTRAL SYSTEM did not converge for energy
   **   ~~~   ** Check values should be zero. Most Recent values listed first.
   **   ~~~   ** Demand-to-Supply interface energy check value iteration history trace: 800.228272,800.228272,800.228272,800.228272,800.228272,800.228272,800.228272,800.228272,800.228272,800.228272,
   **   ~~~   ** Supply-to-demand interface deck 1 energy check value iteration history trace: 1349.800195,1349.800195,1349.800195,1349.800195,1349.800195,1349.800195,1349.800195,1349.800195,1349.800195,1349.800195,
   ************* Simulation Error Summary *************
   ** Warning ** The following Report Variables were requested but not generated -- check.rdd file
   **   ~~~   ** Either the IDF did not contain these elements, the variable name is misspelled,
   **   ~~~   ** or the requested variable is an advanced output which requires Output : Diagnostics, DisplayAdvancedReportVariables;
   ************* Key=*, VarName=BASEBOARD TOTAL HEATING ENERGY, Frequency=
   ************* Key=*, VarName=WATER HEATER NATURALGAS ENERGY, Frequency=
   ************* Key=*, VarName=COOLING COIL TOTAL HEATING ENERGY, Frequency=
   ************* There are 34 unused schedules in input.
   ************* There are 388 unused week schedules in input.
   ************* There are 396 unused day schedules in input.
   ************* Use Output:Diagnostics,DisplayUnusedSchedules; to see them.
   *************
   ************* ===== Recurring Error Summary =====
   ************* The following recurring error messages occurred.
   *************
   *************  ** Warning ** "TOTAL HOT WATER LOAD" - Target water temperature should be less than or equal to the hot water temperature error continues...
   *************  **   ~~~   **   This error occurred 56989 total times;
   *************  **   ~~~   **   during Warmup 0 times;
   *************  **   ~~~   **   during Sizing 0 times.
   *************  **   ~~~   **   Max=6.620636  Min=1.362956E-003
   *************
   *************
   ************* ===== Final Error Summary =====
   ************* The following error categories occurred.  Consider correcting or noting.
   ************* Nominally Unused Constructions
   ************* ..The nominally unused constructions warning is provided to alert you to potential conditions that can cause
   ************* ..extra time during simulation. Each construction is calculated by the algorithm indicated in the HeatBalanceAlgorithm
   ************* ..object. You may remove the constructions indicated (when you use the DisplayExtraWarnings option).
   *************
   ************* EnergyPlus Warmup Error Summary. During Warmup: 1 Warning; 0 Severe Errors.
   ************* EnergyPlus Sizing Error Summary. During Sizing: 4 Warning; 0 Severe Errors.
   ************* EnergyPlus Completed Successfully-- 57021 Warning; 0 Severe Errors; Elapsed Time=00hr 01min 30.74sec
