Program Version,EnergyPlus, Version 22.2.0-c249759bad, YMD=2023.09.01 17:37,
   ************* Beginning Zone Sizing Calculations
   ** Warning ** ProcessScheduleInput: Schedule:Constant="ALWAYS ON DISCRETE", Schedule Type Limits Name="ONOFF" not found -- will not be validated
   ** Warning ** Foundation:Kiva="KIVA FOUNDATION", no Interior Horizontal Insulation Material Name defined
   **   ~~~   ** Interior Horizontal Insulation Depth will not be used.
   ** Warning ** CheckUsedConstructions: There are 15 nominally unused constructions in input.
   **   ~~~   ** Each Unused construction is shown.
   ************* Construction=INTERIOR FLOOR
   ************* Construction=INTERIOR WINDOW
   ************* Construction=EXTERIOR DOOR
   ************* Construction=INTERIOR DOOR
   ************* Construction=GABLE CONSTRUCTION
   ************* Construction=CRAWL_FLOOR
   ************* Construction=INSULATED PIPE
   ************* Construction=PLAIN PIPE
   ************* Construction=TDD PIPE
   ************* Construction=TDD DOME
   ************* Construction=TDD DIFFUSER
   ************* Construction=CRAWL WALL
   ************* Construction=CEILING-FLOOR-LAYER
   ************* Construction=SLAB CONSTRUCTION W FULL R10 INSULATION
   ************* Construction=SLAB CONSTRUCTION W FULL R5 INSULATION
   ** Warning ** GetDXCoils: Coil:Heating:DX:SingleSpeed="DX_HEATING_COIL" curve values
   **   ~~~   ** ... Defrost Energy Input Ratio Function of Temperature Curve Name = DEFROSTEIR output is not equal to 1.0 (+ or - 10%) at rated conditions.
   **   ~~~   ** ... Curve output at rated conditions = 0.152
   ************* Beginning System Sizing Calculations
   ************* Beginning Plant Sizing Calculations
   ** Warning ** Coil:WaterHeating:AirToWaterHeatPump:Wrapped "HEAT PUMP WATER HEATER EVAPORATOR": Rated air volume flow rate per watt of rated total water heating capacity is out of range
   **   ~~~   ** Min Rated Vol Flow Per Watt=[4.027E-005], Rated Vol Flow Per Watt=[1.510E-004], Max Rated Vol Flow Per Watt=[8.056E-005]. See Input-Output Reference Manual for valid range.
   ************* SizeFan: : Potential issue with equipment sizing for Fan:OnOff HEAT PUMP WATER HEATER FAN
   **   ~~~   ** User-Specified Maximum Flow Rate [m3/s] = 0.22653
   **   ~~~   ** differs from Design Size Maximum Flow Rate [m3/s] = 7.55250E-002
   **   ~~~   ** This may, or may not, indicate mismatched component sizes.
   **   ~~~   ** Verify that the value entered is intended and is consistent with other components.
   ** Warning ** Water heater = WATER HEATER TANK:  Recovery Efficiency and Energy Factor could not be calculated during the test for standard ratings
   **   ~~~   ** Setpoint was never recovered and/or heater never turned on
   ** Warning ** Check input. Pump nominal power or motor efficiency is set to 0, for pump=MAINS PRESSURE
   ** Warning ** Output:Meter: invalid Key Name="ELECTRIC_RANGE:INTERIOREQUIPMENT:ELECTRICITY" - not found.
   ** Warning ** Output:Meter: invalid Key Name="ELECTRIC_DRYER:INTERIOREQUIPMENT:ELECTRICITY" - not found.
   ** Warning ** Output:Meter: invalid Key Name="HEATRECOVERY:ELECTRICITY" - not found.
   ** Warning ** Output:Meter: invalid Key Name="HEATING:NATURALGAS" - not found.
   ** Warning ** Output:Meter: invalid Key Name="WATERSYSTEMS:NATURALGAS" - not found.
   ** Warning ** Output:Meter: invalid Key Name="PROPANE:FACILITY" - not found.
   ** Warning ** Output:Meter: invalid Key Name="HEATING:PROPANE" - not found.
   ************* Testing Individual Branch Integrity
   ************* All Branches passed integrity testing
   ************* Testing Individual Supply Air Path Integrity
   ************* All Supply Air Paths passed integrity testing
   ************* Testing Individual Return Air Path Integrity
   ************* All Return Air Paths passed integrity testing
   ************* No node connection errors were found.
   ************* Beginning Simulation
   ** Warning ** AirflowNetwork::Solver::validate_distribution: Heat pump water heater is simulated along with an AirflowNetwork but is not included in the AirflowNetwork.
   ** Warning ** CalcEquipmentFlowRates: "TOTAL HOT WATER LOAD" - Target water temperature is greater than the hot water temperature by (0.47 C)
   **   ~~~   **  Environment=EXTREME_WINTER, at Simulation time=01/27 06:00 - 06:15
   **   ~~~   ** ...target water temperature     = 53.33 C
   **   ~~~   ** ...hot water temperature        = 52.86 C
   **   ~~~   ** ...Target water temperature should be less than or equal to the hot water temperature. Verify temperature setpoints and schedules.
   ** Warning ** SimHVAC: Maximum iterations (20) exceeded for all HVAC loops, at ANNUAL, 01/21 10:45 - 10:50
   **   ~~~   ** The solution for one or more of the Air Loop HVAC systems did not appear to converge
   **   ~~~   ** Air System Named = CENTRAL SYSTEM did not converge for mass flow rate
   **   ~~~   ** Check values should be zero. Most Recent values listed first.
   **   ~~~   ** Demand-to-Supply interface mass flow rate check value iteration history trace: 8.716683E-002,8.716683E-002,8.716683E-002,8.716682E-002,8.716682E-002,8.716682E-002,8.716682E-002,8.716682E-002,8.716682E-002,8.716682E-002,
   **   ~~~   ** Supply-to-demand interface deck 1 mass flow rate check value iteration history trace: 8.716683E-002,8.716683E-002,8.716683E-002,8.716682E-002,8.716682E-002,8.716682E-002,8.716682E-002,8.716682E-002,8.716682E-002,8.716682E-002,
   **   ~~~   ** Air System Named = CENTRAL SYSTEM did not converge for energy
   **   ~~~   ** Check values should be zero. Most Recent values listed first.
   **   ~~~   ** Demand-to-Supply interface energy check value iteration history trace: 1727.271875,1727.271875,1727.271874,1727.271874,1727.271874,1727.271874,1727.271874,1727.271874,1727.271874,1727.271874,
   **   ~~~   ** Supply-to-demand interface deck 1 energy check value iteration history trace: 2701.897891,2701.897891,2701.897891,2701.897891,2701.897891,2701.897891,2701.897890,2701.897890,2701.897890,2701.897890,
   ** Warning ** SimHVAC: Maximum iterations (20) exceeded for all HVAC loops, at ANNUAL, 02/09 20:00 - 20:15
   **   ~~~   ** The solution for one or more of the Air Loop HVAC systems did not appear to converge
   **   ~~~   ** Air System Named = CENTRAL SYSTEM did not converge for mass flow rate
   **   ~~~   ** Check values should be zero. Most Recent values listed first.
   **   ~~~   ** Demand-to-Supply interface mass flow rate check value iteration history trace: 9.026132E-002,9.026132E-002,9.026132E-002,9.026132E-002,9.026132E-002,9.026132E-002,9.026132E-002,9.026132E-002,9.026132E-002,9.026132E-002,
   **   ~~~   ** Supply-to-demand interface deck 1 mass flow rate check value iteration history trace: 9.026132E-002,9.026132E-002,9.026132E-002,9.026132E-002,9.026132E-002,9.026132E-002,9.026132E-002,9.026132E-002,9.026132E-002,9.026132E-002,
   **   ~~~   ** Air System Named = CENTRAL SYSTEM did not converge for energy
   **   ~~~   ** Check values should be zero. Most Recent values listed first.
   **   ~~~   ** Demand-to-Supply interface energy check value iteration history trace: 1790.272330,1790.272330,1790.272329,1790.272329,1790.272329,1790.272329,1790.272329,1790.272329,1790.272329,1790.272329,
   **   ~~~   ** Supply-to-demand interface deck 1 energy check value iteration history trace: 2713.062883,2713.062883,2713.062882,2713.062882,2713.062882,2713.062882,2713.062882,2713.062882,2713.062881,2713.062881,
   ** Warning ** SimHVAC: Maximum iterations (20) exceeded for all HVAC loops, at ANNUAL, 02/12 18:00 - 18:15
   **   ~~~   ** The solution for one or more of the Air Loop HVAC systems did not appear to converge
   **   ~~~   ** Air System Named = CENTRAL SYSTEM did not converge for mass flow rate
   **   ~~~   ** Check values should be zero. Most Recent values listed first.
   **   ~~~   ** Demand-to-Supply interface mass flow rate check value iteration history trace: 8.605681E-002,8.605681E-002,8.605681E-002,8.605681E-002,8.605681E-002,8.605681E-002,8.605681E-002,8.605681E-002,8.605681E-002,8.605681E-002,
   **   ~~~   ** Supply-to-demand interface deck 1 mass flow rate check value iteration history trace: 8.605681E-002,8.605681E-002,8.605681E-002,8.605681E-002,8.605681E-002,8.605681E-002,8.605681E-002,8.605681E-002,8.605681E-002,8.605681E-002,
   **   ~~~   ** Air System Named = CENTRAL SYSTEM did not converge for energy
   **   ~~~   ** Check values should be zero. Most Recent values listed first.
   **   ~~~   ** Demand-to-Supply interface energy check value iteration history trace: 1703.259095,1703.259095,1703.259094,1703.259094,1703.259094,1703.259094,1703.259094,1703.259094,1703.259094,1703.259094,
   **   ~~~   ** Supply-to-demand interface deck 1 energy check value iteration history trace: 2593.835490,2593.835489,2593.835489,2593.835489,2593.835489,2593.835489,2593.835488,2593.835488,2593.835488,2593.835488,
   ** Warning ** SimHVAC: Maximum iterations (20) exceeded for all HVAC loops, at ANNUAL, 02/19 18:38 - 18:45
   **   ~~~   ** The solution for one or more of the Air Loop HVAC systems did not appear to converge
   **   ~~~   ** Air System Named = CENTRAL SYSTEM did not converge for mass flow rate
   **   ~~~   ** Check values should be zero. Most Recent values listed first.
   **   ~~~   ** Demand-to-Supply interface mass flow rate check value iteration history trace: 9.172912E-002,9.172912E-002,9.172912E-002,9.172912E-002,9.172912E-002,9.172912E-002,9.172912E-002,9.172912E-002,9.172912E-002,9.172912E-002,
   **   ~~~   ** Supply-to-demand interface deck 1 mass flow rate check value iteration history trace: 9.172912E-002,9.172912E-002,9.172912E-002,9.172912E-002,9.172912E-002,9.172912E-002,9.172912E-002,9.172912E-002,9.172912E-002,9.172912E-002,
   **   ~~~   ** Air System Named = CENTRAL SYSTEM did not converge for energy
   **   ~~~   ** Check values should be zero. Most Recent values listed first.
   **   ~~~   ** Demand-to-Supply interface energy check value iteration history trace: 1816.707570,1816.707570,1816.707570,1816.707570,1816.707570,1816.707570,1816.707569,1816.707569,1816.707569,1816.707569,
   **   ~~~   ** Supply-to-demand interface deck 1 energy check value iteration history trace: 2800.230990,2800.230989,2800.230989,2800.230989,2800.230989,2800.230989,2800.230989,2800.230988,2800.230988,2800.230988,
   ** Warning ** SimHVAC: Maximum iterations (20) exceeded for all HVAC loops, at ANNUAL, 03/05 12:30 - 12:34
   **   ~~~   ** The solution for one or more of the Air Loop HVAC systems did not appear to converge
   **   ~~~   ** Air System Named = CENTRAL SYSTEM did not converge for mass flow rate
   **   ~~~   ** Check values should be zero. Most Recent values listed first.
   **   ~~~   ** Demand-to-Supply interface mass flow rate check value iteration history trace: 7.908823E-002,7.908823E-002,7.908823E-002,7.908823E-002,7.908823E-002,7.908823E-002,7.908823E-002,7.908823E-002,7.908823E-002,7.908823E-002,
   **   ~~~   ** Supply-to-demand interface deck 1 mass flow rate check value iteration history trace: 7.908823E-002,7.908823E-002,7.908823E-002,7.908823E-002,7.908823E-002,7.908823E-002,7.908823E-002,7.908823E-002,7.908823E-002,7.908823E-002,
   **   ~~~   ** Air System Named = CENTRAL SYSTEM did not converge for energy
   **   ~~~   ** Check values should be zero. Most Recent values listed first.
   **   ~~~   ** Demand-to-Supply interface energy check value iteration history trace: 1562.814926,1562.814926,1562.814926,1562.814926,1562.814926,1562.814926,1562.814926,1562.814926,1562.814926,1562.814925,
   **   ~~~   ** Supply-to-demand interface deck 1 energy check value iteration history trace: 2400.688806,2400.688806,2400.688806,2400.688806,2400.688806,2400.688805,2400.688805,2400.688805,2400.688805,2400.688805,
   ** Warning ** SimHVAC: Maximum iterations (20) exceeded for all HVAC loops, at ANNUAL, 03/05 12:45 - 12:48
   **   ~~~   ** The solution for one or more of the Air Loop HVAC systems did not appear to converge
   **   ~~~   ** Air System Named = CENTRAL SYSTEM did not converge for mass flow rate
   **   ~~~   ** Check values should be zero. Most Recent values listed first.
   **   ~~~   ** Demand-to-Supply interface mass flow rate check value iteration history trace: 7.675452E-002,7.675452E-002,7.675452E-002,7.675452E-002,7.675452E-002,7.675452E-002,7.675452E-002,7.675452E-002,7.675452E-002,7.675452E-002,
   **   ~~~   ** Supply-to-demand interface deck 1 mass flow rate check value iteration history trace: 7.675452E-002,7.675452E-002,7.675452E-002,7.675452E-002,7.675452E-002,7.675452E-002,7.675452E-002,7.675452E-002,7.675452E-002,7.675452E-002,
   **   ~~~   ** Air System Named = CENTRAL SYSTEM did not converge for energy
   **   ~~~   ** Check values should be zero. Most Recent values listed first.
   **   ~~~   ** Demand-to-Supply interface energy check value iteration history trace: 1515.573607,1515.573606,1515.573606,1515.573606,1515.573606,1515.573606,1515.573606,1515.573606,1515.573606,1515.573606,
   **   ~~~   ** Supply-to-demand interface deck 1 energy check value iteration history trace: 2328.784878,2328.784878,2328.784878,2328.784877,2328.784877,2328.784877,2328.784877,2328.784877,2328.784877,2328.784876,
   ** Warning ** SimHVAC: Maximum iterations (20) exceeded for all HVAC loops, at ANNUAL, 03/21 21:15 - 21:22
   **   ~~~   ** The solution for one or more of the Air Loop HVAC systems did not appear to converge
   **   ~~~   ** Air System Named = CENTRAL SYSTEM did not converge for mass flow rate
   **   ~~~   ** Check values should be zero. Most Recent values listed first.
   **   ~~~   ** Demand-to-Supply interface mass flow rate check value iteration history trace: 8.735439E-002,8.735439E-002,8.735439E-002,8.735439E-002,8.735439E-002,8.735439E-002,8.735439E-002,8.735439E-002,8.735439E-002,8.735439E-002,
   **   ~~~   ** Supply-to-demand interface deck 1 mass flow rate check value iteration history trace: 8.735439E-002,8.735439E-002,8.735439E-002,8.735439E-002,8.735439E-002,8.735439E-002,8.735439E-002,8.735439E-002,8.735439E-002,8.735439E-002,
   **   ~~~   ** Air System Named = CENTRAL SYSTEM did not converge for energy
   **   ~~~   ** Check values should be zero. Most Recent values listed first.
   **   ~~~   ** Demand-to-Supply interface energy check value iteration history trace: 1727.035764,1727.035764,1727.035764,1727.035763,1727.035763,1727.035763,1727.035763,1727.035763,1727.035763,1727.035763,
   **   ~~~   ** Supply-to-demand interface deck 1 energy check value iteration history trace: 2573.763146,2573.763145,2573.763145,2573.763145,2573.763145,2573.763145,2573.763145,2573.763144,2573.763144,2573.763144,
   ** Warning ** SimHVAC: Maximum iterations (20) exceeded for all HVAC loops, at ANNUAL, 03/23 16:45 - 17:00
   **   ~~~   ** The solution for one or more of the Air Loop HVAC systems did not appear to converge
   **   ~~~   ** Air System Named = CENTRAL SYSTEM did not converge for mass flow rate
   **   ~~~   ** Check values should be zero. Most Recent values listed first.
   **   ~~~   ** Demand-to-Supply interface mass flow rate check value iteration history trace: 8.149084E-002,8.149084E-002,8.149084E-002,8.149084E-002,8.149084E-002,8.149084E-002,8.149084E-002,8.149084E-002,8.149084E-002,8.149084E-002,
   **   ~~~   ** Supply-to-demand interface deck 1 mass flow rate check value iteration history trace: 8.149084E-002,8.149084E-002,8.149084E-002,8.149084E-002,8.149084E-002,8.149084E-002,8.149084E-002,8.149084E-002,8.149084E-002,8.149084E-002,
   **   ~~~   ** Air System Named = CENTRAL SYSTEM did not converge for energy
   **   ~~~   ** Check values should be zero. Most Recent values listed first.
   **   ~~~   ** Demand-to-Supply interface energy check value iteration history trace: 1601.071834,1601.071834,1601.071834,1601.071834,1601.071834,1601.071834,1601.071834,1601.071834,1601.071834,1601.071834,
   **   ~~~   ** Supply-to-demand interface deck 1 energy check value iteration history trace: 2428.475863,2428.475863,2428.475863,2428.475863,2428.475863,2428.475862,2428.475862,2428.475862,2428.475862,2428.475862,
   ** Warning ** SimHVAC: Maximum iterations (20) exceeded for all HVAC loops, at ANNUAL, 04/08 18:00 - 18:15
   **   ~~~   ** The solution for one or more of the Air Loop HVAC systems did not appear to converge
   **   ~~~   ** Air System Named = CENTRAL SYSTEM did not converge for mass flow rate
   **   ~~~   ** Check values should be zero. Most Recent values listed first.
   **   ~~~   ** Demand-to-Supply interface mass flow rate check value iteration history trace: 7.280867E-002,7.280867E-002,7.280867E-002,7.280867E-002,7.280867E-002,7.280867E-002,7.280867E-002,7.280867E-002,7.280867E-002,7.280867E-002,
   **   ~~~   ** Supply-to-demand interface deck 1 mass flow rate check value iteration history trace: 7.280867E-002,7.280867E-002,7.280867E-002,7.280867E-002,7.280867E-002,7.280867E-002,7.280867E-002,7.280867E-002,7.280867E-002,7.280867E-002,
   **   ~~~   ** Air System Named = CENTRAL SYSTEM did not converge for energy
   **   ~~~   ** Check values should be zero. Most Recent values listed first.
   **   ~~~   ** Demand-to-Supply interface energy check value iteration history trace: 1451.741914,1451.741913,1451.741913,1451.741913,1451.741913,1451.741913,1451.741913,1451.741913,1451.741913,1451.741913,
   **   ~~~   ** Supply-to-demand interface deck 1 energy check value iteration history trace: 2440.701015,2440.701015,2440.701015,2440.701015,2440.701015,2440.701015,2440.701014,2440.701014,2440.701014,2440.701014,
   ** Warning ** SimHVAC: Maximum iterations (20) exceeded for all HVAC loops, at ANNUAL, 04/12 12:15 - 12:22
   **   ~~~   ** The solution for one or more of the Air Loop HVAC systems did not appear to converge
   **   ~~~   ** Air System Named = CENTRAL SYSTEM did not converge for mass flow rate
   **   ~~~   ** Check values should be zero. Most Recent values listed first.
   **   ~~~   ** Demand-to-Supply interface mass flow rate check value iteration history trace: 5.928460E-002,5.928460E-002,5.928460E-002,5.928460E-002,5.928460E-002,5.928460E-002,5.928460E-002,5.928460E-002,5.928460E-002,5.928460E-002,
   **   ~~~   ** Supply-to-demand interface deck 1 mass flow rate check value iteration history trace: 5.928460E-002,5.928460E-002,5.928460E-002,5.928460E-002,5.928460E-002,5.928460E-002,5.928460E-002,5.928460E-002,5.928460E-002,5.928460E-002,
   **   ~~~   ** Air System Named = CENTRAL SYSTEM did not converge for energy
   **   ~~~   ** Check values should be zero. Most Recent values listed first.
   **   ~~~   ** Demand-to-Supply interface energy check value iteration history trace: 1171.595028,1171.595028,1171.595028,1171.595028,1171.595028,1171.595028,1171.595028,1171.595028,1171.595028,1171.595028,
   **   ~~~   ** Supply-to-demand interface deck 1 energy check value iteration history trace: 1959.557991,1959.557991,1959.557991,1959.557991,1959.557990,1959.557990,1959.557990,1959.557990,1959.557990,1959.557990,
   ** Warning ** SimHVAC: Maximum iterations (20) exceeded for all HVAC loops, at ANNUAL, 04/15 08:15 - 08:30
   **   ~~~   ** The solution for one or more of the Air Loop HVAC systems did not appear to converge
   **   ~~~   ** Air System Named = CENTRAL SYSTEM did not converge for mass flow rate
   **   ~~~   ** Check values should be zero. Most Recent values listed first.
   **   ~~~   ** Demand-to-Supply interface mass flow rate check value iteration history trace: 6.922546E-002,6.922546E-002,6.922546E-002,6.922546E-002,6.922546E-002,6.922546E-002,6.922546E-002,6.922546E-002,6.922546E-002,6.922546E-002,
   **   ~~~   ** Supply-to-demand interface deck 1 mass flow rate check value iteration history trace: 6.922546E-002,6.922546E-002,6.922546E-002,6.922546E-002,6.922546E-002,6.922546E-002,6.922546E-002,6.922546E-002,6.922546E-002,6.922546E-002,
   **   ~~~   ** Air System Named = CENTRAL SYSTEM did not converge for energy
   **   ~~~   ** Check values should be zero. Most Recent values listed first.
   **   ~~~   ** Demand-to-Supply interface energy check value iteration history trace: 1371.550441,1371.550440,1371.550440,1371.550440,1371.550440,1371.550440,1371.550440,1371.550440,1371.550440,1371.550440,
   **   ~~~   ** Supply-to-demand interface deck 1 energy check value iteration history trace: 2361.069197,2361.069197,2361.069197,2361.069197,2361.069196,2361.069196,2361.069196,2361.069196,2361.069196,2361.069196,
   ** Warning ** SimHVAC: Maximum iterations (20) exceeded for all HVAC loops, at ANNUAL, 04/20 08:45 - 09:00
   **   ~~~   ** The solution for one or more of the Air Loop HVAC systems did not appear to converge
   **   ~~~   ** Air System Named = CENTRAL SYSTEM did not converge for mass flow rate
   **   ~~~   ** Check values should be zero. Most Recent values listed first.
   **   ~~~   ** Demand-to-Supply interface mass flow rate check value iteration history trace: 6.976508E-002,6.976508E-002,6.976508E-002,6.976508E-002,6.976508E-002,6.976508E-002,6.976508E-002,6.976508E-002,6.976508E-002,6.976508E-002,
   **   ~~~   ** Supply-to-demand interface deck 1 mass flow rate check value iteration history trace: 6.976508E-002,6.976508E-002,6.976508E-002,6.976508E-002,6.976508E-002,6.976508E-002,6.976508E-002,6.976508E-002,6.976508E-002,6.976508E-002,
   **   ~~~   ** Air System Named = CENTRAL SYSTEM did not converge for energy
   **   ~~~   ** Check values should be zero. Most Recent values listed first.
   **   ~~~   ** Demand-to-Supply interface energy check value iteration history trace: 1382.491319,1382.491319,1382.491319,1382.491319,1382.491319,1382.491319,1382.491319,1382.491319,1382.491319,1382.491318,
   **   ~~~   ** Supply-to-demand interface deck 1 energy check value iteration history trace: 2315.548147,2315.548147,2315.548147,2315.548146,2315.548146,2315.548146,2315.548146,2315.548146,2315.548146,2315.548146,
   ** Warning ** SimHVAC: Maximum iterations (20) exceeded for all HVAC loops, at ANNUAL, 06/05 06:02 - 06:04
   **   ~~~   ** The solution for one or more of the Air Loop HVAC systems did not appear to converge
   **   ~~~   ** Air System Named = CENTRAL SYSTEM did not converge for mass flow rate
   **   ~~~   ** Check values should be zero. Most Recent values listed first.
   **   ~~~   ** Demand-to-Supply interface mass flow rate check value iteration history trace: 0.158822,0.158822,0.158822,0.158822,0.158822,0.158822,0.158822,0.158822,0.158822,0.158822,
   **   ~~~   ** Supply-to-demand interface deck 1 mass flow rate check value iteration history trace: 0.158822,0.158822,0.158822,0.158822,0.158822,0.158822,0.158822,0.158822,0.158822,0.158822,
   **   ~~~   ** Air System Named = CENTRAL SYSTEM did not converge for energy
   **   ~~~   ** Check values should be zero. Most Recent values listed first.
   **   ~~~   ** Demand-to-Supply interface energy check value iteration history trace: 3737.365276,3737.365277,3737.365278,3737.365279,3737.365279,3737.365280,3737.365281,3737.365281,3737.365282,3737.365283,
   **   ~~~   ** Supply-to-demand interface deck 1 energy check value iteration history trace: 1848.926460,1848.926461,1848.926461,1848.926461,1848.926462,1848.926462,1848.926462,1848.926463,1848.926463,1848.926463,
   ** Warning ** SimHVAC: Maximum iterations (20) exceeded for all HVAC loops, at ANNUAL, 06/06 08:45 - 09:00
   **   ~~~   ** The solution for one or more of the Air Loop HVAC systems did not appear to converge
   **   ~~~   ** Air System Named = CENTRAL SYSTEM did not converge for mass flow rate
   **   ~~~   ** Check values should be zero. Most Recent values listed first.
   **   ~~~   ** Demand-to-Supply interface mass flow rate check value iteration history trace: 4.403624E-002,4.403624E-002,4.403624E-002,4.403624E-002,4.403624E-002,4.403624E-002,4.403624E-002,4.403624E-002,4.403624E-002,4.403624E-002,
   **   ~~~   ** Supply-to-demand interface deck 1 mass flow rate check value iteration history trace: 4.403624E-002,4.403624E-002,4.403624E-002,4.403624E-002,4.403624E-002,4.403624E-002,4.403624E-002,4.403624E-002,4.403624E-002,4.403624E-002,
   **   ~~~   ** Air System Named = CENTRAL SYSTEM did not converge for energy
   **   ~~~   ** Check values should be zero. Most Recent values listed first.
   **   ~~~   ** Demand-to-Supply interface energy check value iteration history trace: 1038.811122,1038.811122,1038.811122,1038.811122,1038.811122,1038.811122,1038.811122,1038.811123,1038.811123,1038.811123,
   **   ~~~   ** Supply-to-demand interface deck 1 energy check value iteration history trace: 537.594320,537.594320,537.594320,537.594320,537.594320,537.594320,537.594320,537.594320,537.594320,537.594320,
   ************* Simulation Error Summary *************
   ** Warning ** The following Report Variables were requested but not generated -- check.rdd file
   **   ~~~   ** Either the IDF did not contain these elements, the variable name is misspelled,
   **   ~~~   ** or the requested variable is an advanced output which requires Output : Diagnostics, DisplayAdvancedReportVariables;
   ************* Key=*, VarName=BASEBOARD TOTAL HEATING ENERGY, Frequency=
   ************* Key=*, VarName=WATER HEATER NATURALGAS ENERGY, Frequency=
   ************* Key=*, VarName=COOLING COIL TOTAL HEATING ENERGY, Frequency=
   ************* There are 34 unused schedules in input.
   ************* There are 388 unused week schedules in input.
   ************* There are 396 unused day schedules in input.
   ************* Use Output:Diagnostics,DisplayUnusedSchedules; to see them.
   *************
   ************* ===== Recurring Error Summary =====
   ************* The following recurring error messages occurred.
   *************
   *************  ** Warning ** "TOTAL HOT WATER LOAD" - Target water temperature should be less than or equal to the hot water temperature error continues...
   *************  **   ~~~   **   This error occurred 117501 total times;
   *************  **   ~~~   **   during Warmup 0 times;
   *************  **   ~~~   **   during Sizing 0 times.
   *************  **   ~~~   **   Max=10.158484  Min=1.358406E-003
   *************
   *************  ** Warning ** SimHVAC: Exceeding Maximum iterations for all HVAC loops, during ANNUAL continues
   *************  **   ~~~   **   This error occurred 17 total times;
   *************  **   ~~~   **   during Warmup 0 times;
   *************  **   ~~~   **   during Sizing 0 times.
   *************
   *************
   ************* ===== Final Error Summary =====
   ************* The following error categories occurred.  Consider correcting or noting.
   ************* Nominally Unused Constructions
   ************* ..The nominally unused constructions warning is provided to alert you to potential conditions that can cause
   ************* ..extra time during simulation. Each construction is calculated by the algorithm indicated in the HeatBalanceAlgorithm
   ************* ..object. You may remove the constructions indicated (when you use the DisplayExtraWarnings option).
   *************
   ************* EnergyPlus Warmup Error Summary. During Warmup: 1 Warning; 0 Severe Errors.
   ************* EnergyPlus Sizing Error Summary. During Sizing: 4 Warning; 0 Severe Errors.
   ************* EnergyPlus Completed Successfully-- 117549 Warning; 0 Severe Errors; Elapsed Time=00hr 05min 40.79sec
