Program Version,EnergyPlus, Version 22.2.0-c249759bad, YMD=2023.09.01 19:43,
   ************* Beginning Zone Sizing Calculations
   ** Warning ** ProcessScheduleInput: Schedule:Constant="ALWAYS ON DISCRETE", Schedule Type Limits Name="ONOFF" not found -- will not be validated
   ** Warning ** Foundation:Kiva="KIVA FOUNDATION", no Interior Horizontal Insulation Material Name defined
   **   ~~~   ** Interior Horizontal Insulation Depth will not be used.
   ** Warning ** CheckUsedConstructions: There are 15 nominally unused constructions in input.
   **   ~~~   ** Each Unused construction is shown.
   ************* Construction=INTERIOR FLOOR
   ************* Construction=INTERIOR WINDOW
   ************* Construction=EXTERIOR DOOR
   ************* Construction=INTERIOR DOOR
   ************* Construction=GABLE CONSTRUCTION
   ************* Construction=CRAWL_FLOOR
   ************* Construction=INSULATED PIPE
   ************* Construction=PLAIN PIPE
   ************* Construction=TDD PIPE
   ************* Construction=TDD DOME
   ************* Construction=TDD DIFFUSER
   ************* Construction=CRAWL WALL
   ************* Construction=CEILING-FLOOR-LAYER
   ************* Construction=SLAB CONSTRUCTION W FULL R10 INSULATION
   ************* Construction=SLAB CONSTRUCTION W FULL R5 INSULATION
   ** Warning ** GetDXCoils: Coil:Heating:DX:SingleSpeed="DX_HEATING_COIL" curve values
   **   ~~~   ** ... Defrost Energy Input Ratio Function of Temperature Curve Name = DEFROSTEIR output is not equal to 1.0 (+ or - 10%) at rated conditions.
   **   ~~~   ** ... Curve output at rated conditions = 0.152
   ************* Beginning System Sizing Calculations
   ************* Beginning Plant Sizing Calculations
   ** Warning ** SizeDXCoil Coil:Cooling:DX:SingleSpeed DX_COOLING_COIL
   **   ~~~   ** ...Gross Rated Total Cooling Capacity [W] will be limited by the maximum rated volume flow per rated total capacity ratio.
   **   ~~~   ** ...DX coil volume flow rate ( m3/s ) = 0.481932
   **   ~~~   ** ...Requested capacity ( W ) = 6094.548
   **   ~~~   ** ...Requested flow/capacity ratio ( m3/s/W ) = 7.907E-005
   **   ~~~   ** ...Maximum flow/capacity ratio ( m3/s/W ) = 6.041E-005
   **   ~~~   ** ...Adjusted capacity ( W ) = 7977.695
   ** Warning ** Coil:WaterHeating:AirToWaterHeatPump:Wrapped "HEAT PUMP WATER HEATER EVAPORATOR": Rated air volume flow rate per watt of rated total water heating capacity is out of range
   **   ~~~   ** Min Rated Vol Flow Per Watt=[4.027E-005], Rated Vol Flow Per Watt=[1.510E-004], Max Rated Vol Flow Per Watt=[8.056E-005]. See Input-Output Reference Manual for valid range.
   ************* SizeFan: : Potential issue with equipment sizing for Fan:OnOff HEAT PUMP WATER HEATER FAN
   **   ~~~   ** User-Specified Maximum Flow Rate [m3/s] = 0.22653
   **   ~~~   ** differs from Design Size Maximum Flow Rate [m3/s] = 7.55250E-002
   **   ~~~   ** This may, or may not, indicate mismatched component sizes.
   **   ~~~   ** Verify that the value entered is intended and is consistent with other components.
   ** Warning ** Water heater = WATER HEATER TANK:  Recovery Efficiency and Energy Factor could not be calculated during the test for standard ratings
   **   ~~~   ** Setpoint was never recovered and/or heater never turned on
   ** Warning ** Check input. Pump nominal power or motor efficiency is set to 0, for pump=MAINS PRESSURE
   ** Warning ** Output:Meter: invalid Key Name="ELECTRIC_RANGE:INTERIOREQUIPMENT:ELECTRICITY" - not found.
   ** Warning ** Output:Meter: invalid Key Name="ELECTRIC_DRYER:INTERIOREQUIPMENT:ELECTRICITY" - not found.
   ** Warning ** Output:Meter: invalid Key Name="HEATRECOVERY:ELECTRICITY" - not found.
   ** Warning ** Output:Meter: invalid Key Name="HEATING:NATURALGAS" - not found.
   ** Warning ** Output:Meter: invalid Key Name="WATERSYSTEMS:NATURALGAS" - not found.
   ** Warning ** Output:Meter: invalid Key Name="PROPANE:FACILITY" - not found.
   ** Warning ** Output:Meter: invalid Key Name="HEATING:PROPANE" - not found.
   ************* Testing Individual Branch Integrity
   ************* All Branches passed integrity testing
   ************* Testing Individual Supply Air Path Integrity
   ************* All Supply Air Paths passed integrity testing
   ************* Testing Individual Return Air Path Integrity
   ************* All Return Air Paths passed integrity testing
   ************* No node connection errors were found.
   ************* Beginning Simulation
   ** Warning ** AirflowNetwork::Solver::validate_distribution: Heat pump water heater is simulated along with an AirflowNetwork but is not included in the AirflowNetwork.
   ** Warning ** CalcEquipmentFlowRates: "TOTAL HOT WATER LOAD" - Target water temperature is greater than the hot water temperature by (4.51 C)
   **   ~~~   **  Environment=EXTREME_WINTER, at Simulation time=01/06 06:00 - 06:15
   **   ~~~   ** ...target water temperature     = 53.33 C
   **   ~~~   ** ...hot water temperature        = 48.83 C
   **   ~~~   ** ...Target water temperature should be less than or equal to the hot water temperature. Verify temperature setpoints and schedules.
   ** Warning ** SimHVAC: Maximum iterations (20) exceeded for all HVAC loops, at EXTREME_WINTER, 01/10 12:02 - 12:05
   **   ~~~   ** The solution for one or more of the Air Loop HVAC systems did not appear to converge
   **   ~~~   ** Air System Named = CENTRAL SYSTEM did not converge for mass flow rate
   **   ~~~   ** Check values should be zero. Most Recent values listed first.
   **   ~~~   ** Demand-to-Supply interface mass flow rate check value iteration history trace: 5.777993E-002,5.777993E-002,5.777993E-002,5.777993E-002,5.777993E-002,5.777993E-002,5.777993E-002,5.777993E-002,5.777993E-002,5.777993E-002,
   **   ~~~   ** Supply-to-demand interface deck 1 mass flow rate check value iteration history trace: 5.777993E-002,5.777993E-002,5.777993E-002,5.777993E-002,5.777993E-002,5.777993E-002,5.777993E-002,5.777993E-002,5.777993E-002,5.777993E-002,
   **   ~~~   ** Air System Named = CENTRAL SYSTEM did not converge for energy
   **   ~~~   ** Check values should be zero. Most Recent values listed first.
   **   ~~~   ** Demand-to-Supply interface energy check value iteration history trace: 1145.101810,1145.101809,1145.101809,1145.101809,1145.101809,1145.101809,1145.101809,1145.101809,1145.101809,1145.101809,
   **   ~~~   ** Supply-to-demand interface deck 1 energy check value iteration history trace: 1814.214681,1814.214681,1814.214681,1814.214681,1814.214681,1814.214681,1814.214681,1814.214681,1814.214681,1814.214680,
   ** Warning ** Temperature out of range [-100. to 200.] (PsyPsatFnTemp)
   **   ~~~   **  Routine=PsyTwbFnTdbWPb, Environment=ANNUAL, at Simulation time=01/24 02:00 - 02:15
   **   ~~~   **  Input Temperature=-469.16
   ** Warning ** SimHVAC: Maximum iterations (20) exceeded for all HVAC loops, at ANNUAL, 01/30 10:17 - 10:19
   **   ~~~   ** The solution for one or more of the Air Loop HVAC systems did not appear to converge
   **   ~~~   ** Air System Named = CENTRAL SYSTEM did not converge for mass flow rate
   **   ~~~   ** Check values should be zero. Most Recent values listed first.
   **   ~~~   ** Demand-to-Supply interface mass flow rate check value iteration history trace: 4.725047E-002,4.725047E-002,4.725047E-002,4.725047E-002,4.725047E-002,4.725047E-002,4.725047E-002,4.725047E-002,4.725047E-002,4.725047E-002,
   **   ~~~   ** Supply-to-demand interface deck 1 mass flow rate check value iteration history trace: 4.725047E-002,4.725047E-002,4.725047E-002,4.725047E-002,4.725047E-002,4.725047E-002,4.725047E-002,4.725047E-002,4.725047E-002,4.725047E-002,
   **   ~~~   ** Air System Named = CENTRAL SYSTEM did not converge for energy
   **   ~~~   ** Check values should be zero. Most Recent values listed first.
   **   ~~~   ** Demand-to-Supply interface energy check value iteration history trace: 933.476592,933.476592,933.476592,933.476592,933.476592,933.476592,933.476592,933.476592,933.476592,933.476592,
   **   ~~~   ** Supply-to-demand interface deck 1 energy check value iteration history trace: 1820.238476,1820.238476,1820.238476,1820.238476,1820.238476,1820.238476,1820.238476,1820.238476,1820.238476,1820.238476,
   ** Warning ** SimHVAC: Maximum iterations (20) exceeded for all HVAC loops, at ANNUAL, 02/28 09:00 - 09:04
   **   ~~~   ** The solution for one or more of the Air Loop HVAC systems did not appear to converge
   **   ~~~   ** Air System Named = CENTRAL SYSTEM did not converge for mass flow rate
   **   ~~~   ** Check values should be zero. Most Recent values listed first.
   **   ~~~   ** Demand-to-Supply interface mass flow rate check value iteration history trace: 3.929448E-002,3.929448E-002,3.929448E-002,3.929448E-002,3.929448E-002,3.929448E-002,3.929448E-002,3.929448E-002,3.929448E-002,3.929448E-002,
   **   ~~~   ** Supply-to-demand interface deck 1 mass flow rate check value iteration history trace: 3.929448E-002,3.929448E-002,3.929448E-002,3.929448E-002,3.929448E-002,3.929448E-002,3.929448E-002,3.929448E-002,3.929448E-002,3.929448E-002,
   **   ~~~   ** Air System Named = CENTRAL SYSTEM did not converge for energy
   **   ~~~   ** Check values should be zero. Most Recent values listed first.
   **   ~~~   ** Demand-to-Supply interface energy check value iteration history trace: 776.941044,776.941044,776.941044,776.941044,776.941044,776.941044,776.941044,776.941044,776.941044,776.941044,
   **   ~~~   ** Supply-to-demand interface deck 1 energy check value iteration history trace: 1590.245457,1590.245457,1590.245457,1590.245457,1590.245457,1590.245457,1590.245457,1590.245456,1590.245456,1590.245456,
   ** Warning ** SimHVAC: Maximum iterations (20) exceeded for all HVAC loops, at ANNUAL, 03/03 08:30 - 08:45
   **   ~~~   ** The solution for one or more of the Air Loop HVAC systems did not appear to converge
   **   ~~~   ** Air System Named = CENTRAL SYSTEM did not converge for mass flow rate
   **   ~~~   ** Check values should be zero. Most Recent values listed first.
   **   ~~~   ** Demand-to-Supply interface mass flow rate check value iteration history trace: 5.677462E-002,5.677462E-002,5.677462E-002,5.677462E-002,5.677462E-002,5.677462E-002,5.677462E-002,5.677462E-002,5.677462E-002,5.677462E-002,
   **   ~~~   ** Supply-to-demand interface deck 1 mass flow rate check value iteration history trace: 5.677462E-002,5.677462E-002,5.677462E-002,5.677462E-002,5.677462E-002,5.677462E-002,5.677462E-002,5.677462E-002,5.677462E-002,5.677462E-002,
   **   ~~~   ** Air System Named = CENTRAL SYSTEM did not converge for energy
   **   ~~~   ** Check values should be zero. Most Recent values listed first.
   **   ~~~   ** Demand-to-Supply interface energy check value iteration history trace: 1125.070593,1125.070593,1125.070593,1125.070593,1125.070593,1125.070593,1125.070593,1125.070593,1125.070593,1125.070593,
   **   ~~~   ** Supply-to-demand interface deck 1 energy check value iteration history trace: 2163.683780,2163.683780,2163.683780,2163.683780,2163.683780,2163.683780,2163.683780,2163.683780,2163.683780,2163.683780,
   ** Warning ** SimHVAC: Maximum iterations (20) exceeded for all HVAC loops, at ANNUAL, 03/15 07:45 - 08:00
   **   ~~~   ** The solution for one or more of the Air Loop HVAC systems did not appear to converge
   **   ~~~   ** Air System Named = CENTRAL SYSTEM did not converge for mass flow rate
   **   ~~~   ** Check values should be zero. Most Recent values listed first.
   **   ~~~   ** Demand-to-Supply interface mass flow rate check value iteration history trace: 6.045287E-002,6.045287E-002,6.045287E-002,6.045287E-002,6.045287E-002,6.045287E-002,6.045287E-002,6.045287E-002,6.045287E-002,6.045287E-002,
   **   ~~~   ** Supply-to-demand interface deck 1 mass flow rate check value iteration history trace: 6.045287E-002,6.045287E-002,6.045287E-002,6.045287E-002,6.045287E-002,6.045287E-002,6.045287E-002,6.045287E-002,6.045287E-002,6.045287E-002,
   **   ~~~   ** Air System Named = CENTRAL SYSTEM did not converge for energy
   **   ~~~   ** Check values should be zero. Most Recent values listed first.
   **   ~~~   ** Demand-to-Supply interface energy check value iteration history trace: 1197.912551,1197.912551,1197.912551,1197.912551,1197.912551,1197.912551,1197.912551,1197.912551,1197.912551,1197.912551,
   **   ~~~   ** Supply-to-demand interface deck 1 energy check value iteration history trace: 2230.489731,2230.489731,2230.489731,2230.489731,2230.489731,2230.489731,2230.489731,2230.489731,2230.489731,2230.489731,
   ** Warning ** SimHVAC: Maximum iterations (20) exceeded for all HVAC loops, at ANNUAL, 03/15 08:23 - 08:25
   **   ~~~   ** The solution for one or more of the Air Loop HVAC systems did not appear to converge
   **   ~~~   ** Air System Named = CENTRAL SYSTEM did not converge for mass flow rate
   **   ~~~   ** Check values should be zero. Most Recent values listed first.
   **   ~~~   ** Demand-to-Supply interface mass flow rate check value iteration history trace: 5.664806E-002,5.664806E-002,5.664806E-002,5.664806E-002,5.664806E-002,5.664806E-002,5.664806E-002,5.664806E-002,5.664806E-002,5.664806E-002,
   **   ~~~   ** Supply-to-demand interface deck 1 mass flow rate check value iteration history trace: 5.664806E-002,5.664806E-002,5.664806E-002,5.664806E-002,5.664806E-002,5.664806E-002,5.664806E-002,5.664806E-002,5.664806E-002,5.664806E-002,
   **   ~~~   ** Air System Named = CENTRAL SYSTEM did not converge for energy
   **   ~~~   ** Check values should be zero. Most Recent values listed first.
   **   ~~~   ** Demand-to-Supply interface energy check value iteration history trace: 1121.467529,1121.467529,1121.467529,1121.467529,1121.467529,1121.467529,1121.467529,1121.467529,1121.467529,1121.467529,
   **   ~~~   ** Supply-to-demand interface deck 1 energy check value iteration history trace: 2115.070600,2115.070600,2115.070600,2115.070600,2115.070600,2115.070600,2115.070600,2115.070600,2115.070600,2115.070600,
   ** Warning ** SimHVAC: Maximum iterations (20) exceeded for all HVAC loops, at ANNUAL, 03/22 07:00 - 07:15
   **   ~~~   ** The solution for one or more of the Air Loop HVAC systems did not appear to converge
   **   ~~~   ** Air System Named = CENTRAL SYSTEM did not converge for mass flow rate
   **   ~~~   ** Check values should be zero. Most Recent values listed first.
   **   ~~~   ** Demand-to-Supply interface mass flow rate check value iteration history trace: 6.289307E-002,6.289307E-002,6.289307E-002,6.289307E-002,6.289307E-002,6.289307E-002,6.289307E-002,6.289307E-002,6.289307E-002,6.289307E-002,
   **   ~~~   ** Supply-to-demand interface deck 1 mass flow rate check value iteration history trace: 6.289307E-002,6.289307E-002,6.289307E-002,6.289307E-002,6.289307E-002,6.289307E-002,6.289307E-002,6.289307E-002,6.289307E-002,6.289307E-002,
   **   ~~~   ** Air System Named = CENTRAL SYSTEM did not converge for energy
   **   ~~~   ** Check values should be zero. Most Recent values listed first.
   **   ~~~   ** Demand-to-Supply interface energy check value iteration history trace: 1246.197591,1246.197591,1246.197591,1246.197590,1246.197590,1246.197590,1246.197590,1246.197590,1246.197590,1246.197590,
   **   ~~~   ** Supply-to-demand interface deck 1 energy check value iteration history trace: 2320.103315,2320.103315,2320.103315,2320.103315,2320.103315,2320.103314,2320.103314,2320.103314,2320.103314,2320.103314,
   ** Warning ** SimHVAC: Maximum iterations (20) exceeded for all HVAC loops, at ANNUAL, 04/23 07:45 - 08:00
   **   ~~~   ** The solution for one or more of the Air Loop HVAC systems did not appear to converge
   **   ~~~   ** Air System Named = CENTRAL SYSTEM did not converge for mass flow rate
   **   ~~~   ** Check values should be zero. Most Recent values listed first.
   **   ~~~   ** Demand-to-Supply interface mass flow rate check value iteration history trace: 5.057018E-002,5.057018E-002,5.057018E-002,5.057018E-002,5.057018E-002,5.057018E-002,5.057018E-002,5.057018E-002,5.057018E-002,5.057018E-002,
   **   ~~~   ** Supply-to-demand interface deck 1 mass flow rate check value iteration history trace: 5.057018E-002,5.057018E-002,5.057018E-002,5.057018E-002,5.057018E-002,5.057018E-002,5.057018E-002,5.057018E-002,5.057018E-002,5.057018E-002,
   **   ~~~   ** Air System Named = CENTRAL SYSTEM did not converge for energy
   **   ~~~   ** Check values should be zero. Most Recent values listed first.
   **   ~~~   ** Demand-to-Supply interface energy check value iteration history trace: 1002.284752,1002.284752,1002.284752,1002.284752,1002.284752,1002.284752,1002.284752,1002.284752,1002.284752,1002.284752,
   **   ~~~   ** Supply-to-demand interface deck 1 energy check value iteration history trace: 1840.049518,1840.049518,1840.049518,1840.049517,1840.049517,1840.049517,1840.049517,1840.049517,1840.049517,1840.049517,
   ** Warning ** SimHVAC: Maximum iterations (20) exceeded for all HVAC loops, at ANNUAL, 04/25 07:40 - 07:43
   **   ~~~   ** The solution for one or more of the Air Loop HVAC systems did not appear to converge
   **   ~~~   ** Air System Named = CENTRAL SYSTEM did not converge for mass flow rate
   **   ~~~   ** Check values should be zero. Most Recent values listed first.
   **   ~~~   ** Demand-to-Supply interface mass flow rate check value iteration history trace: 5.241814E-002,5.241814E-002,5.241814E-002,5.241814E-002,5.241814E-002,5.241814E-002,5.241814E-002,5.241814E-002,5.241814E-002,5.241814E-002,
   **   ~~~   ** Supply-to-demand interface deck 1 mass flow rate check value iteration history trace: 5.241814E-002,5.241814E-002,5.241814E-002,5.241814E-002,5.241814E-002,5.241814E-002,5.241814E-002,5.241814E-002,5.241814E-002,5.241814E-002,
   **   ~~~   ** Air System Named = CENTRAL SYSTEM did not converge for energy
   **   ~~~   ** Check values should be zero. Most Recent values listed first.
   **   ~~~   ** Demand-to-Supply interface energy check value iteration history trace: 1035.590242,1035.590242,1035.590242,1035.590242,1035.590242,1035.590242,1035.590242,1035.590242,1035.590242,1035.590242,
   **   ~~~   ** Supply-to-demand interface deck 1 energy check value iteration history trace: 2000.244979,2000.244979,2000.244979,2000.244979,2000.244979,2000.244979,2000.244979,2000.244979,2000.244978,2000.244978,
   ** Warning ** SimHVAC: Maximum iterations (20) exceeded for all HVAC loops, at ANNUAL, 04/26 04:00 - 04:08
   **   ~~~   ** The solution for one or more of the Air Loop HVAC systems did not appear to converge
   **   ~~~   ** Air System Named = CENTRAL SYSTEM did not converge for mass flow rate
   **   ~~~   ** Check values should be zero. Most Recent values listed first.
   **   ~~~   ** Demand-to-Supply interface mass flow rate check value iteration history trace: 4.024097E-002,4.024097E-002,4.024097E-002,4.024097E-002,4.024097E-002,4.024097E-002,4.024097E-002,4.024097E-002,4.024097E-002,4.024097E-002,
   **   ~~~   ** Supply-to-demand interface deck 1 mass flow rate check value iteration history trace: 4.024097E-002,4.024097E-002,4.024097E-002,4.024097E-002,4.024097E-002,4.024097E-002,4.024097E-002,4.024097E-002,4.024097E-002,4.024097E-002,
   **   ~~~   ** Air System Named = CENTRAL SYSTEM did not converge for energy
   **   ~~~   ** Check values should be zero. Most Recent values listed first.
   **   ~~~   ** Demand-to-Supply interface energy check value iteration history trace: 752.845480,752.845480,752.845480,752.845480,752.845480,752.845480,752.845480,752.845480,752.845479,752.845479,
   **   ~~~   ** Supply-to-demand interface deck 1 energy check value iteration history trace: 1198.173496,1198.173496,1198.173496,1198.173496,1198.173496,1198.173496,1198.173496,1198.173496,1198.173496,1198.173495,
   ** Warning ** SimHVAC: Maximum iterations (20) exceeded for all HVAC loops, at ANNUAL, 05/05 09:30 - 09:45
   **   ~~~   ** The solution for one or more of the Air Loop HVAC systems did not appear to converge
   **   ~~~   ** Air System Named = CENTRAL SYSTEM did not converge for mass flow rate
   **   ~~~   ** Check values should be zero. Most Recent values listed first.
   **   ~~~   ** Demand-to-Supply interface mass flow rate check value iteration history trace: 5.328164E-002,5.328164E-002,5.328164E-002,5.328164E-002,5.328164E-002,5.328164E-002,5.328164E-002,5.328164E-002,5.328164E-002,5.328164E-002,
   **   ~~~   ** Supply-to-demand interface deck 1 mass flow rate check value iteration history trace: 5.328164E-002,5.328164E-002,5.328164E-002,5.328164E-002,5.328164E-002,5.328164E-002,5.328164E-002,5.328164E-002,5.328164E-002,5.328164E-002,
   **   ~~~   ** Air System Named = CENTRAL SYSTEM did not converge for energy
   **   ~~~   ** Check values should be zero. Most Recent values listed first.
   **   ~~~   ** Demand-to-Supply interface energy check value iteration history trace: 1055.875912,1055.875912,1055.875912,1055.875912,1055.875912,1055.875912,1055.875912,1055.875912,1055.875912,1055.875912,
   **   ~~~   ** Supply-to-demand interface deck 1 energy check value iteration history trace: 1983.574732,1983.574732,1983.574732,1983.574732,1983.574732,1983.574732,1983.574732,1983.574732,1983.574732,1983.574732,
   ** Warning ** SimHVAC: Maximum iterations (20) exceeded for all HVAC loops, at ANNUAL, 09/28 05:55 - 06:00
   **   ~~~   ** The solution for one or more of the Air Loop HVAC systems did not appear to converge
   **   ~~~   ** Air System Named = CENTRAL SYSTEM did not converge for mass flow rate
   **   ~~~   ** Check values should be zero. Most Recent values listed first.
   **   ~~~   ** Demand-to-Supply interface mass flow rate check value iteration history trace: 5.437473E-002,5.437473E-002,5.437473E-002,5.437473E-002,5.437473E-002,5.437473E-002,5.437473E-002,5.437473E-002,5.437473E-002,5.437473E-002,
   **   ~~~   ** Supply-to-demand interface deck 1 mass flow rate check value iteration history trace: 5.437473E-002,5.437473E-002,5.437473E-002,5.437473E-002,5.437473E-002,5.437473E-002,5.437473E-002,5.437473E-002,5.437473E-002,5.437473E-002,
   **   ~~~   ** Air System Named = CENTRAL SYSTEM did not converge for energy
   **   ~~~   ** Check values should be zero. Most Recent values listed first.
   **   ~~~   ** Demand-to-Supply interface energy check value iteration history trace: 1071.190534,1071.190534,1071.190534,1071.190534,1071.190534,1071.190534,1071.190534,1071.190534,1071.190533,1071.190533,
   **   ~~~   ** Supply-to-demand interface deck 1 energy check value iteration history trace: 2008.233998,2008.233998,2008.233998,2008.233998,2008.233998,2008.233998,2008.233998,2008.233998,2008.233998,2008.233998,
   ** Warning ** SimHVAC: Maximum iterations (20) exceeded for all HVAC loops, at ANNUAL, 10/16 10:20 - 10:22
   **   ~~~   ** The solution for one or more of the Air Loop HVAC systems did not appear to converge
   **   ~~~   ** Air System Named = CENTRAL SYSTEM did not converge for mass flow rate
   **   ~~~   ** Check values should be zero. Most Recent values listed first.
   **   ~~~   ** Demand-to-Supply interface mass flow rate check value iteration history trace: 0.145235,0.145235,0.145235,0.145235,0.145235,0.145235,0.145235,0.145235,0.145235,0.145235,
   **   ~~~   ** Supply-to-demand interface deck 1 mass flow rate check value iteration history trace: 0.145235,0.145235,0.145235,0.145235,0.145235,0.145235,0.145235,0.145235,0.145235,0.145235,
   **   ~~~   ** Air System Named = CENTRAL SYSTEM did not converge for energy
   **   ~~~   ** Check values should be zero. Most Recent values listed first.
   **   ~~~   ** Demand-to-Supply interface energy check value iteration history trace: 3452.383082,3452.383082,3452.383082,3452.383083,3452.383083,3452.383083,3452.383084,3452.383084,3452.383084,3452.383085,
   **   ~~~   ** Supply-to-demand interface deck 1 energy check value iteration history trace: 1056.434110,1056.434110,1056.434111,1056.434111,1056.434111,1056.434111,1056.434111,1056.434111,1056.434111,1056.434111,
   ** Warning ** SimHVAC: Maximum iterations (20) exceeded for all HVAC loops, at ANNUAL, 10/16 10:36 - 10:39
   **   ~~~   ** The solution for one or more of the Air Loop HVAC systems did not appear to converge
   **   ~~~   ** Air System Named = CENTRAL SYSTEM did not converge for mass flow rate
   **   ~~~   ** Check values should be zero. Most Recent values listed first.
   **   ~~~   ** Demand-to-Supply interface mass flow rate check value iteration history trace: 0.156330,0.156330,0.156330,0.156330,0.156330,0.156330,0.156330,0.156330,0.156330,0.156330,
   **   ~~~   ** Supply-to-demand interface deck 1 mass flow rate check value iteration history trace: 0.156330,0.156330,0.156330,0.156330,0.156330,0.156330,0.156330,0.156330,0.156330,0.156330,
   **   ~~~   ** Air System Named = CENTRAL SYSTEM did not converge for energy
   **   ~~~   ** Check values should be zero. Most Recent values listed first.
   **   ~~~   ** Demand-to-Supply interface energy check value iteration history trace: 3717.374781,3717.374781,3717.374782,3717.374782,3717.374782,3717.374783,3717.374783,3717.374784,3717.374784,3717.374784,
   **   ~~~   ** Supply-to-demand interface deck 1 energy check value iteration history trace: 1149.719070,1149.719070,1149.719070,1149.719071,1149.719071,1149.719071,1149.719071,1149.719071,1149.719071,1149.719071,
   ** Warning ** WetBulb not converged after 101 iterations(PsyTwbFnTdbWPb)
   **   ~~~   **  Routine=Unknown, Environment=ANNUAL, at Simulation time=12/04 19:00 - 19:05
   **   ~~~   **  Input Temperature = 6.69
   **   ~~~   **  Input Humidity Ratio= 1.925378E-003
   **   ~~~   **  Input Pressure = 82694.00
   **   ~~~   **  Resultant Temperature= -1.06
   ************* Simulation Error Summary *************
   ** Warning ** The following Report Variables were requested but not generated -- check.rdd file
   **   ~~~   ** Either the IDF did not contain these elements, the variable name is misspelled,
   **   ~~~   ** or the requested variable is an advanced output which requires Output : Diagnostics, DisplayAdvancedReportVariables;
   ************* Key=*, VarName=BASEBOARD TOTAL HEATING ENERGY, Frequency=
   ************* Key=*, VarName=WATER HEATER NATURALGAS ENERGY, Frequency=
   ************* Key=*, VarName=COOLING COIL TOTAL HEATING ENERGY, Frequency=
   ************* There are 34 unused schedules in input.
   ************* There are 388 unused week schedules in input.
   ************* There are 396 unused day schedules in input.
   ************* Use Output:Diagnostics,DisplayUnusedSchedules; to see them.
   *************
   ************* ===== Recurring Error Summary =====
   ************* The following recurring error messages occurred.
   *************
   *************  ** Warning ** "TOTAL HOT WATER LOAD" - Target water temperature should be less than or equal to the hot water temperature error continues...
   *************  **   ~~~   **   This error occurred 161553 total times;
   *************  **   ~~~   **   during Warmup 0 times;
   *************  **   ~~~   **   during Sizing 0 times.
   *************  **   ~~~   **   Max=12.958895  Min=2.152450E-003
   *************
   *************  ** Warning ** Temperature out of range [-100. to 200.] (PsyPsatFnTemp)
   *************  **   ~~~   **   This error occurred 3 total times;
   *************  **   ~~~   **   during Warmup 0 times;
   *************  **   ~~~   **   during Sizing 0 times.
   *************  **   ~~~   **   Max=-120.63657 C  Min=-469.161362 C
   *************
   *************  ** Warning ** SimHVAC: Exceeding Maximum iterations for all HVAC loops, during ANNUAL continues
   *************  **   ~~~   **   This error occurred 17 total times;
   *************  **   ~~~   **   during Warmup 0 times;
   *************  **   ~~~   **   during Sizing 0 times.
   *************
   *************  ** Warning ** WetBulb not converged after max iterations(PsyTwbFnTdbWPb)
   *************  **   ~~~   **   This error occurred 1 total times;
   *************  **   ~~~   **   during Warmup 0 times;
   *************  **   ~~~   **   during Sizing 0 times.
   *************
   *************
   ************* ===== Final Error Summary =====
   ************* The following error categories occurred.  Consider correcting or noting.
   ************* Nominally Unused Constructions
   ************* ..The nominally unused constructions warning is provided to alert you to potential conditions that can cause
   ************* ..extra time during simulation. Each construction is calculated by the algorithm indicated in the HeatBalanceAlgorithm
   ************* ..object. You may remove the constructions indicated (when you use the DisplayExtraWarnings option).
   *************
   ************* EnergyPlus Warmup Error Summary. During Warmup: 1 Warning; 0 Severe Errors.
   ************* EnergyPlus Sizing Error Summary. During Sizing: 4 Warning; 0 Severe Errors.
   ************* EnergyPlus Completed Successfully-- 161606 Warning; 0 Severe Errors; Elapsed Time=00hr 01min 49.31sec
