Program Version,EnergyPlus, Version 22.2.0-c249759bad, YMD=2023.09.01 14:50,
   ************* Beginning Zone Sizing Calculations
   ** Warning ** ProcessScheduleInput: Schedule:Constant="ALWAYS ON DISCRETE", Schedule Type Limits Name="ONOFF" not found -- will not be validated
   ** Warning ** Foundation:Kiva="KIVA FOUNDATION", no Interior Horizontal Insulation Material Name defined
   **   ~~~   ** Interior Horizontal Insulation Depth will not be used.
   ** Warning ** CheckUsedConstructions: There are 15 nominally unused constructions in input.
   **   ~~~   ** Each Unused construction is shown.
   ************* Construction=INTERIOR FLOOR
   ************* Construction=INTERIOR WINDOW
   ************* Construction=EXTERIOR DOOR
   ************* Construction=INTERIOR DOOR
   ************* Construction=GABLE CONSTRUCTION
   ************* Construction=CRAWL_FLOOR
   ************* Construction=INSULATED PIPE
   ************* Construction=PLAIN PIPE
   ************* Construction=TDD PIPE
   ************* Construction=TDD DOME
   ************* Construction=TDD DIFFUSER
   ************* Construction=CRAWL WALL
   ************* Construction=CEILING-FLOOR-LAYER
   ************* Construction=SLAB CONSTRUCTION W FULL R10 INSULATION
   ************* Construction=SLAB CONSTRUCTION W FULL R5 INSULATION
   ** Warning ** GetDXCoils: Coil:Heating:DX:SingleSpeed="DX_HEATING_COIL" curve values
   **   ~~~   ** ... Defrost Energy Input Ratio Function of Temperature Curve Name = DEFROSTEIR output is not equal to 1.0 (+ or - 10%) at rated conditions.
   **   ~~~   ** ... Curve output at rated conditions = 0.152
   ************* Beginning System Sizing Calculations
   ************* Beginning Plant Sizing Calculations
   ** Warning ** Coil:WaterHeating:AirToWaterHeatPump:Wrapped "HEAT PUMP WATER HEATER EVAPORATOR": Rated air volume flow rate per watt of rated total water heating capacity is out of range
   **   ~~~   ** Min Rated Vol Flow Per Watt=[4.027E-005], Rated Vol Flow Per Watt=[1.386E-004], Max Rated Vol Flow Per Watt=[8.056E-005]. See Input-Output Reference Manual for valid range.
   ** Warning ** Water heater = WATER HEATER TANK:  Recovery Efficiency and Energy Factor could not be calculated during the test for standard ratings
   **   ~~~   ** Setpoint was never recovered and/or heater never turned on
   ** Warning ** Check input. Pump nominal power or motor efficiency is set to 0, for pump=MAINS PRESSURE
   ** Warning ** Output:Meter: invalid Key Name="ELECTRIC_RANGE:INTERIOREQUIPMENT:ELECTRICITY" - not found.
   ** Warning ** Output:Meter: invalid Key Name="ELECTRIC_DRYER:INTERIOREQUIPMENT:ELECTRICITY" - not found.
   ** Warning ** Output:Meter: invalid Key Name="HEATRECOVERY:ELECTRICITY" - not found.
   ** Warning ** Output:Meter: invalid Key Name="HEATING:NATURALGAS" - not found.
   ** Warning ** Output:Meter: invalid Key Name="WATERSYSTEMS:NATURALGAS" - not found.
   ** Warning ** Output:Meter: invalid Key Name="PROPANE:FACILITY" - not found.
   ** Warning ** Output:Meter: invalid Key Name="HEATING:PROPANE" - not found.
   ************* Testing Individual Branch Integrity
   ************* All Branches passed integrity testing
   ************* Testing Individual Supply Air Path Integrity
   ************* All Supply Air Paths passed integrity testing
   ************* Testing Individual Return Air Path Integrity
   ************* All Return Air Paths passed integrity testing
   ************* No node connection errors were found.
   ************* Beginning Simulation
   ** Warning ** AirflowNetwork::Solver::validate_distribution: Heat pump water heater is simulated along with an AirflowNetwork but is not included in the AirflowNetwork.
   ** Warning ** CalcEquipmentFlowRates: "TOTAL HOT WATER LOAD" - Target water temperature is greater than the hot water temperature by (1.64 C)
   **   ~~~   **  Environment=EXTREME_WINTER, at Simulation time=01/27 06:00 - 06:15
   **   ~~~   ** ...target water temperature     = 53.33 C
   **   ~~~   ** ...hot water temperature        = 51.69 C
   **   ~~~   ** ...Target water temperature should be less than or equal to the hot water temperature. Verify temperature setpoints and schedules.
   ** Warning ** SimHVAC: Maximum iterations (20) exceeded for all HVAC loops, at ANNUAL, 01/07 08:45 - 09:00
   **   ~~~   ** The solution for one or more of the Air Loop HVAC systems did not appear to converge
   **   ~~~   ** Air System Named = CENTRAL SYSTEM did not converge for mass flow rate
   **   ~~~   ** Check values should be zero. Most Recent values listed first.
   **   ~~~   ** Demand-to-Supply interface mass flow rate check value iteration history trace: 8.435270E-002,8.435270E-002,8.435270E-002,8.435270E-002,8.435270E-002,8.435270E-002,8.435270E-002,8.435270E-002,8.435270E-002,8.435270E-002,
   **   ~~~   ** Supply-to-demand interface deck 1 mass flow rate check value iteration history trace: 8.435270E-002,8.435270E-002,8.435270E-002,8.435270E-002,8.435270E-002,8.435270E-002,8.435270E-002,8.435270E-002,8.435270E-002,8.435270E-002,
   **   ~~~   ** Air System Named = CENTRAL SYSTEM did not converge for energy
   **   ~~~   ** Check values should be zero. Most Recent values listed first.
   **   ~~~   ** Demand-to-Supply interface energy check value iteration history trace: 1658.894773,1658.894772,1658.894772,1658.894772,1658.894772,1658.894772,1658.894772,1658.894772,1658.894772,1658.894772,
   **   ~~~   ** Supply-to-demand interface deck 1 energy check value iteration history trace: 2850.652650,2850.652650,2850.652650,2850.652650,2850.652650,2850.652650,2850.652649,2850.652649,2850.652649,2850.652649,
   ** Warning ** SimHVAC: Maximum iterations (20) exceeded for all HVAC loops, at ANNUAL, 01/22 08:30 - 08:38
   **   ~~~   ** The solution for one or more of the Air Loop HVAC systems did not appear to converge
   **   ~~~   ** Air System Named = CENTRAL SYSTEM did not converge for mass flow rate
   **   ~~~   ** Check values should be zero. Most Recent values listed first.
   **   ~~~   ** Demand-to-Supply interface mass flow rate check value iteration history trace: 6.167903E-002,6.167903E-002,6.167903E-002,6.167903E-002,6.167903E-002,6.167903E-002,6.167903E-002,6.167903E-002,6.167903E-002,6.167903E-002,
   **   ~~~   ** Supply-to-demand interface deck 1 mass flow rate check value iteration history trace: 6.167903E-002,6.167903E-002,6.167903E-002,6.167903E-002,6.167903E-002,6.167903E-002,6.167903E-002,6.167903E-002,6.167903E-002,6.167903E-002,
   **   ~~~   ** Air System Named = CENTRAL SYSTEM did not converge for energy
   **   ~~~   ** Check values should be zero. Most Recent values listed first.
   **   ~~~   ** Demand-to-Supply interface energy check value iteration history trace: 1222.158258,1222.158258,1222.158258,1222.158258,1222.158258,1222.158258,1222.158258,1222.158258,1222.158258,1222.158258,
   **   ~~~   ** Supply-to-demand interface deck 1 energy check value iteration history trace: 2157.758717,2157.758717,2157.758717,2157.758717,2157.758717,2157.758717,2157.758716,2157.758716,2157.758716,2157.758716,
   ** Warning ** SimHVAC: Maximum iterations (20) exceeded for all HVAC loops, at ANNUAL, 02/09 07:45 - 08:00
   **   ~~~   ** The solution for one or more of the Air Loop HVAC systems did not appear to converge
   **   ~~~   ** Air System Named = CENTRAL SYSTEM did not converge for mass flow rate
   **   ~~~   ** Check values should be zero. Most Recent values listed first.
   **   ~~~   ** Demand-to-Supply interface mass flow rate check value iteration history trace: 3.419834E-002,3.419834E-002,3.419834E-002,3.419834E-002,3.419834E-002,3.419834E-002,3.419834E-002,3.419834E-002,3.419834E-002,3.419834E-002,
   **   ~~~   ** Supply-to-demand interface deck 1 mass flow rate check value iteration history trace: 3.419834E-002,3.419834E-002,3.419834E-002,3.419834E-002,3.419834E-002,3.419834E-002,3.419834E-002,3.419834E-002,3.419834E-002,3.419834E-002,
   **   ~~~   ** Air System Named = CENTRAL SYSTEM did not converge for energy
   **   ~~~   ** Check values should be zero. Most Recent values listed first.
   **   ~~~   ** Demand-to-Supply interface energy check value iteration history trace: 677.632705,677.632705,677.632705,677.632705,677.632705,677.632705,677.632705,677.632705,677.632705,677.632705,
   **   ~~~   ** Supply-to-demand interface deck 1 energy check value iteration history trace: 1152.681885,1152.681885,1152.681885,1152.681885,1152.681885,1152.681885,1152.681885,1152.681884,1152.681884,1152.681884,
   ** Warning ** SimHVAC: Maximum iterations (20) exceeded for all HVAC loops, at ANNUAL, 02/18 10:28 - 10:30
   **   ~~~   ** The solution for one or more of the Air Loop HVAC systems did not appear to converge
   **   ~~~   ** Air System Named = CENTRAL SYSTEM did not converge for mass flow rate
   **   ~~~   ** Check values should be zero. Most Recent values listed first.
   **   ~~~   ** Demand-to-Supply interface mass flow rate check value iteration history trace: 6.562406E-002,6.562406E-002,6.562406E-002,6.562406E-002,6.562406E-002,6.562406E-002,6.562406E-002,6.562406E-002,6.562406E-002,6.562406E-002,
   **   ~~~   ** Supply-to-demand interface deck 1 mass flow rate check value iteration history trace: 6.562406E-002,6.562406E-002,6.562406E-002,6.562406E-002,6.562406E-002,6.562406E-002,6.562406E-002,6.562406E-002,6.562406E-002,6.562406E-002,
   **   ~~~   ** Air System Named = CENTRAL SYSTEM did not converge for energy
   **   ~~~   ** Check values should be zero. Most Recent values listed first.
   **   ~~~   ** Demand-to-Supply interface energy check value iteration history trace: 1295.479826,1295.479826,1295.479826,1295.479826,1295.479826,1295.479826,1295.479826,1295.479826,1295.479826,1295.479826,
   **   ~~~   ** Supply-to-demand interface deck 1 energy check value iteration history trace: 2291.774277,2291.774277,2291.774277,2291.774276,2291.774276,2291.774276,2291.774276,2291.774276,2291.774276,2291.774276,
   ** Warning ** SimHVAC: Maximum iterations (20) exceeded for all HVAC loops, at ANNUAL, 02/19 08:15 - 08:30
   **   ~~~   ** The solution for one or more of the Air Loop HVAC systems did not appear to converge
   **   ~~~   ** Air System Named = CENTRAL SYSTEM did not converge for mass flow rate
   **   ~~~   ** Check values should be zero. Most Recent values listed first.
   **   ~~~   ** Demand-to-Supply interface mass flow rate check value iteration history trace: 4.357811E-002,4.357811E-002,4.357811E-002,4.357811E-002,4.357811E-002,4.357811E-002,4.357811E-002,4.357811E-002,4.357811E-002,4.357811E-002,
   **   ~~~   ** Supply-to-demand interface deck 1 mass flow rate check value iteration history trace: 4.357811E-002,4.357811E-002,4.357811E-002,4.357811E-002,4.357811E-002,4.357811E-002,4.357811E-002,4.357811E-002,4.357811E-002,4.357811E-002,
   **   ~~~   ** Air System Named = CENTRAL SYSTEM did not converge for energy
   **   ~~~   ** Check values should be zero. Most Recent values listed first.
   **   ~~~   ** Demand-to-Supply interface energy check value iteration history trace: 863.528539,863.528538,863.528538,863.528538,863.528538,863.528538,863.528538,863.528538,863.528538,863.528538,
   **   ~~~   ** Supply-to-demand interface deck 1 energy check value iteration history trace: 1521.503794,1521.503794,1521.503793,1521.503793,1521.503793,1521.503793,1521.503793,1521.503793,1521.503793,1521.503793,
   ** Warning ** SimHVAC: Maximum iterations (20) exceeded for all HVAC loops, at ANNUAL, 03/22 07:00 - 07:04
   **   ~~~   ** The solution for one or more of the Air Loop HVAC systems did not appear to converge
   **   ~~~   ** Air System Named = CENTRAL SYSTEM did not converge for mass flow rate
   **   ~~~   ** Check values should be zero. Most Recent values listed first.
   **   ~~~   ** Demand-to-Supply interface mass flow rate check value iteration history trace: 8.553772E-002,8.553772E-002,8.553772E-002,8.553772E-002,8.553772E-002,8.553772E-002,8.553772E-002,8.553772E-002,8.553772E-002,8.553772E-002,
   **   ~~~   ** Supply-to-demand interface deck 1 mass flow rate check value iteration history trace: 8.553772E-002,8.553772E-002,8.553772E-002,8.553772E-002,8.553772E-002,8.553772E-002,8.553772E-002,8.553772E-002,8.553772E-002,8.553772E-002,
   **   ~~~   ** Air System Named = CENTRAL SYSTEM did not converge for energy
   **   ~~~   ** Check values should be zero. Most Recent values listed first.
   **   ~~~   ** Demand-to-Supply interface energy check value iteration history trace: 1695.534875,1695.534875,1695.534875,1695.534875,1695.534875,1695.534875,1695.534875,1695.534875,1695.534875,1695.534875,
   **   ~~~   ** Supply-to-demand interface deck 1 energy check value iteration history trace: 2853.529983,2853.529983,2853.529983,2853.529983,2853.529983,2853.529983,2853.529982,2853.529982,2853.529982,2853.529982,
   ** Warning ** SimHVAC: Maximum iterations (20) exceeded for all HVAC loops, at ANNUAL, 03/26 09:23 - 09:26
   **   ~~~   ** The solution for one or more of the Air Loop HVAC systems did not appear to converge
   **   ~~~   ** Air System Named = CENTRAL SYSTEM did not converge for mass flow rate
   **   ~~~   ** Check values should be zero. Most Recent values listed first.
   **   ~~~   ** Demand-to-Supply interface mass flow rate check value iteration history trace: 0.290102,0.290102,0.290102,0.290102,0.290102,0.290102,0.290102,0.290102,0.290102,0.290102,
   **   ~~~   ** Supply-to-demand interface deck 1 mass flow rate check value iteration history trace: 0.290102,0.290102,0.290102,0.290102,0.290102,0.290102,0.290102,0.290102,0.290102,0.290102,
   **   ~~~   ** Air System Named = CENTRAL SYSTEM did not converge for energy
   **   ~~~   ** Check values should be zero. Most Recent values listed first.
   **   ~~~   ** Demand-to-Supply interface energy check value iteration history trace: 6951.006739,6951.006740,6951.006740,6951.006741,6951.006742,6951.006742,6951.006743,6951.006743,6951.006744,6951.006745,
   **   ~~~   ** Supply-to-demand interface deck 1 energy check value iteration history trace: 3938.168951,3938.168951,3938.168952,3938.168952,3938.168952,3938.168953,3938.168953,3938.168953,3938.168954,3938.168954,
   ** Warning ** SimHVAC: Maximum iterations (20) exceeded for all HVAC loops, at ANNUAL, 04/01 20:10 - 20:15
   **   ~~~   ** The solution for one or more of the Air Loop HVAC systems did not appear to converge
   **   ~~~   ** Air System Named = CENTRAL SYSTEM did not converge for mass flow rate
   **   ~~~   ** Check values should be zero. Most Recent values listed first.
   **   ~~~   ** Demand-to-Supply interface mass flow rate check value iteration history trace: 0.385034,0.385034,0.385034,0.385034,0.385034,0.385034,0.385034,0.385034,0.385034,0.385034,
   **   ~~~   ** Supply-to-demand interface deck 1 mass flow rate check value iteration history trace: 0.385034,0.385034,0.385034,0.385034,0.385034,0.385034,0.385034,0.385034,0.385034,0.385034,
   **   ~~~   ** Air System Named = CENTRAL SYSTEM did not converge for energy
   **   ~~~   ** Check values should be zero. Most Recent values listed first.
   **   ~~~   ** Demand-to-Supply interface energy check value iteration history trace: 9308.061386,9308.061389,9308.061392,9308.061394,9308.061397,9308.061400,9308.061403,9308.061406,9308.061409,9308.061412,
   **   ~~~   ** Supply-to-demand interface deck 1 energy check value iteration history trace: 5110.362689,5110.362690,5110.362692,5110.362693,5110.362695,5110.362696,5110.362698,5110.362700,5110.362701,5110.362703,
   ** Warning ** SimHVAC: Maximum iterations (20) exceeded for all HVAC loops, at ANNUAL, 04/02 08:11 - 08:15
   **   ~~~   ** The solution for one or more of the Air Loop HVAC systems did not appear to converge
   **   ~~~   ** Air System Named = CENTRAL SYSTEM did not converge for mass flow rate
   **   ~~~   ** Check values should be zero. Most Recent values listed first.
   **   ~~~   ** Demand-to-Supply interface mass flow rate check value iteration history trace: 0.243072,0.243072,0.243072,0.243072,0.243072,0.243072,0.243072,0.243072,0.243072,0.243072,
   **   ~~~   ** Supply-to-demand interface deck 1 mass flow rate check value iteration history trace: 0.243072,0.243072,0.243072,0.243072,0.243072,0.243072,0.243072,0.243072,0.243072,0.243072,
   **   ~~~   ** Air System Named = CENTRAL SYSTEM did not converge for energy
   **   ~~~   ** Check values should be zero. Most Recent values listed first.
   **   ~~~   ** Demand-to-Supply interface energy check value iteration history trace: 5812.546090,5812.546091,5812.546092,5812.546093,5812.546094,5812.546094,5812.546095,5812.546096,5812.546097,5812.546098,
   **   ~~~   ** Supply-to-demand interface deck 1 energy check value iteration history trace: 3622.334403,3622.334403,3622.334404,3622.334404,3622.334405,3622.334405,3622.334406,3622.334406,3622.334407,3622.334407,
   ** Warning ** SimHVAC: Maximum iterations (20) exceeded for all HVAC loops, at ANNUAL, 04/02 11:00 - 11:15
   **   ~~~   ** The solution for one or more of the Air Loop HVAC systems did not appear to converge
   **   ~~~   ** Air System Named = CENTRAL SYSTEM did not converge for mass flow rate
   **   ~~~   ** Check values should be zero. Most Recent values listed first.
   **   ~~~   ** Demand-to-Supply interface mass flow rate check value iteration history trace: 0.187306,0.187306,0.187306,0.187306,0.187306,0.187306,0.187306,0.187306,0.187306,0.187306,
   **   ~~~   ** Supply-to-demand interface deck 1 mass flow rate check value iteration history trace: 0.187306,0.187306,0.187306,0.187306,0.187306,0.187306,0.187306,0.187306,0.187306,0.187306,
   **   ~~~   ** Air System Named = CENTRAL SYSTEM did not converge for energy
   **   ~~~   ** Check values should be zero. Most Recent values listed first.
   **   ~~~   ** Demand-to-Supply interface energy check value iteration history trace: 4496.850787,4496.850789,4496.850790,4496.850791,4496.850792,4496.850793,4496.850795,4496.850796,4496.850797,4496.850798,
   **   ~~~   ** Supply-to-demand interface deck 1 energy check value iteration history trace: 2703.966362,2703.966363,2703.966364,2703.966364,2703.966365,2703.966366,2703.966366,2703.966367,2703.966368,2703.966369,
   ************* Simulation Error Summary *************
   ** Warning ** The following Report Variables were requested but not generated -- check.rdd file
   **   ~~~   ** Either the IDF did not contain these elements, the variable name is misspelled,
   **   ~~~   ** or the requested variable is an advanced output which requires Output : Diagnostics, DisplayAdvancedReportVariables;
   ************* Key=*, VarName=BASEBOARD TOTAL HEATING ENERGY, Frequency=
   ************* Key=*, VarName=WATER HEATER NATURALGAS ENERGY, Frequency=
   ************* Key=*, VarName=COOLING COIL TOTAL HEATING ENERGY, Frequency=
   ************* There are 34 unused schedules in input.
   ************* There are 388 unused week schedules in input.
   ************* There are 396 unused day schedules in input.
   ************* Use Output:Diagnostics,DisplayUnusedSchedules; to see them.
   *************
   ************* ===== Recurring Error Summary =====
   ************* The following recurring error messages occurred.
   *************
   *************  ** Warning ** "TOTAL HOT WATER LOAD" - Target water temperature should be less than or equal to the hot water temperature error continues...
   *************  **   ~~~   **   This error occurred 113165 total times;
   *************  **   ~~~   **   during Warmup 0 times;
   *************  **   ~~~   **   during Sizing 0 times.
   *************  **   ~~~   **   Max=8.498612  Min=3.636963E-005
   *************
   *************
   ************* ===== Final Error Summary =====
   ************* The following error categories occurred.  Consider correcting or noting.
   ************* Nominally Unused Constructions
   ************* ..The nominally unused constructions warning is provided to alert you to potential conditions that can cause
   ************* ..extra time during simulation. Each construction is calculated by the algorithm indicated in the HeatBalanceAlgorithm
   ************* ..object. You may remove the constructions indicated (when you use the DisplayExtraWarnings option).
   *************
   ************* EnergyPlus Warmup Error Summary. During Warmup: 1 Warning; 0 Severe Errors.
   ************* EnergyPlus Sizing Error Summary. During Sizing: 4 Warning; 0 Severe Errors.
   ************* EnergyPlus Completed Successfully-- 113192 Warning; 0 Severe Errors; Elapsed Time=00hr 06min  1.98sec
