Program Version,EnergyPlus, Version 22.2.0-c249759bad, YMD=2023.08.31 12:58,
   ************* Beginning Zone Sizing Calculations
   ** Warning ** ProcessScheduleInput: Schedule:Constant="ALWAYS ON DISCRETE", Schedule Type Limits Name="ONOFF" not found -- will not be validated
   ** Warning ** Foundation:Kiva="KIVA FOUNDATION", no Interior Horizontal Insulation Material Name defined
   **   ~~~   ** Interior Horizontal Insulation Depth will not be used.
   ** Warning ** CheckUsedConstructions: There are 15 nominally unused constructions in input.
   **   ~~~   ** Each Unused construction is shown.
   ************* Construction=INTERIOR FLOOR
   ************* Construction=INTERIOR WINDOW
   ************* Construction=EXTERIOR DOOR
   ************* Construction=INTERIOR DOOR
   ************* Construction=GABLE CONSTRUCTION
   ************* Construction=CRAWL_FLOOR
   ************* Construction=INSULATED PIPE
   ************* Construction=PLAIN PIPE
   ************* Construction=TDD PIPE
   ************* Construction=TDD DOME
   ************* Construction=TDD DIFFUSER
   ************* Construction=CRAWL WALL
   ************* Construction=CEILING-FLOOR-LAYER
   ************* Construction=SLAB CONSTRUCTION W FULL R10 INSULATION
   ************* Construction=SLAB CONSTRUCTION W FULL R5 INSULATION
   ** Warning ** GetDXCoils: Coil:Heating:DX:SingleSpeed="DX_HEATING_COIL" curve values
   **   ~~~   ** ... Defrost Energy Input Ratio Function of Temperature Curve Name = DEFROSTEIR output is not equal to 1.0 (+ or - 10%) at rated conditions.
   **   ~~~   ** ... Curve output at rated conditions = 0.152
   ************* Beginning System Sizing Calculations
   ************* Beginning Plant Sizing Calculations
   ** Warning ** SizeDXCoil Coil:Cooling:DX:SingleSpeed DX_COOLING_COIL
   **   ~~~   ** ...Gross Rated Total Cooling Capacity [W] will be limited by the maximum rated volume flow per rated total capacity ratio.
   **   ~~~   ** ...DX coil volume flow rate ( m3/s ) = 0.440564
   **   ~~~   ** ...Requested capacity ( W ) = 6915.903
   **   ~~~   ** ...Requested flow/capacity ratio ( m3/s/W ) = 6.370E-005
   **   ~~~   ** ...Maximum flow/capacity ratio ( m3/s/W ) = 6.041E-005
   **   ~~~   ** ...Adjusted capacity ( W ) = 7292.907
   ** Warning ** Coil:WaterHeating:AirToWaterHeatPump:Wrapped "HEAT PUMP WATER HEATER EVAPORATOR": Rated air volume flow rate per watt of rated total water heating capacity is out of range
   **   ~~~   ** Min Rated Vol Flow Per Watt=[4.027E-005], Rated Vol Flow Per Watt=[1.386E-004], Max Rated Vol Flow Per Watt=[8.056E-005]. See Input-Output Reference Manual for valid range.
   ** Warning ** Water heater = WATER HEATER TANK:  Recovery Efficiency and Energy Factor could not be calculated during the test for standard ratings
   **   ~~~   ** Setpoint was never recovered and/or heater never turned on
   ** Warning ** Check input. Pump nominal power or motor efficiency is set to 0, for pump=MAINS PRESSURE
   ** Warning ** Output:Meter: invalid Key Name="ELECTRIC_RANGE:INTERIOREQUIPMENT:ELECTRICITY" - not found.
   ** Warning ** Output:Meter: invalid Key Name="ELECTRIC_DRYER:INTERIOREQUIPMENT:ELECTRICITY" - not found.
   ** Warning ** Output:Meter: invalid Key Name="HEATRECOVERY:ELECTRICITY" - not found.
   ** Warning ** Output:Meter: invalid Key Name="HEATING:NATURALGAS" - not found.
   ** Warning ** Output:Meter: invalid Key Name="WATERSYSTEMS:NATURALGAS" - not found.
   ** Warning ** Output:Meter: invalid Key Name="PROPANE:FACILITY" - not found.
   ** Warning ** Output:Meter: invalid Key Name="HEATING:PROPANE" - not found.
   ************* Testing Individual Branch Integrity
   ************* All Branches passed integrity testing
   ************* Testing Individual Supply Air Path Integrity
   ************* All Supply Air Paths passed integrity testing
   ************* Testing Individual Return Air Path Integrity
   ************* All Return Air Paths passed integrity testing
   ************* No node connection errors were found.
   ************* Beginning Simulation
   ** Warning ** AirflowNetwork::Solver::validate_distribution: Heat pump water heater is simulated along with an AirflowNetwork but is not included in the AirflowNetwork.
   ** Warning ** CalcEquipmentFlowRates: "TOTAL HOT WATER LOAD" - Target water temperature is greater than the hot water temperature by (0.99 C)
   **   ~~~   **  Environment=EXTREME_WINTER, at Simulation time=02/10 06:00 - 06:15
   **   ~~~   ** ...target water temperature     = 53.33 C
   **   ~~~   ** ...hot water temperature        = 52.35 C
   **   ~~~   ** ...Target water temperature should be less than or equal to the hot water temperature. Verify temperature setpoints and schedules.
   ** Warning ** SimHVAC: Maximum iterations (20) exceeded for all HVAC loops, at EXTREME_WINTER, 02/10 17:45 - 18:00
   **   ~~~   ** The solution for one or more of the Air Loop HVAC systems did not appear to converge
   **   ~~~   ** Air System Named = CENTRAL SYSTEM did not converge for mass flow rate
   **   ~~~   ** Check values should be zero. Most Recent values listed first.
   **   ~~~   ** Demand-to-Supply interface mass flow rate check value iteration history trace: 8.616073E-002,8.616073E-002,8.616073E-002,8.616073E-002,8.616073E-002,8.616073E-002,8.616073E-002,8.616073E-002,8.616073E-002,8.616073E-002,
   **   ~~~   ** Supply-to-demand interface deck 1 mass flow rate check value iteration history trace: 8.616073E-002,8.616073E-002,8.616073E-002,8.616073E-002,8.616073E-002,8.616073E-002,8.616073E-002,8.616073E-002,8.616073E-002,8.616073E-002,
   **   ~~~   ** Air System Named = CENTRAL SYSTEM did not converge for energy
   **   ~~~   ** Check values should be zero. Most Recent values listed first.
   **   ~~~   ** Demand-to-Supply interface energy check value iteration history trace: 1698.203509,1698.203507,1698.203505,1698.203503,1698.203502,1698.203500,1698.203498,1698.203496,1698.203494,1698.203492,
   **   ~~~   ** Supply-to-demand interface deck 1 energy check value iteration history trace: 2880.005584,2880.005581,2880.005577,2880.005574,2880.005571,2880.005568,2880.005564,2880.005561,2880.005558,2880.005555,
   ** Warning ** SimHVAC: Maximum iterations (20) exceeded for all HVAC loops, at EXTREME_WINTER, 02/15 11:38 - 11:45
   **   ~~~   ** The solution for one or more of the Air Loop HVAC systems did not appear to converge
   **   ~~~   ** Air System Named = CENTRAL SYSTEM did not converge for mass flow rate
   **   ~~~   ** Check values should be zero. Most Recent values listed first.
   **   ~~~   ** Demand-to-Supply interface mass flow rate check value iteration history trace: 3.614688E-002,3.614688E-002,3.614688E-002,3.614688E-002,3.614688E-002,3.614688E-002,3.614688E-002,3.614688E-002,3.614688E-002,3.614688E-002,
   **   ~~~   ** Supply-to-demand interface deck 1 mass flow rate check value iteration history trace: 3.614688E-002,3.614688E-002,3.614688E-002,3.614688E-002,3.614688E-002,3.614688E-002,3.614688E-002,3.614688E-002,3.614688E-002,3.614688E-002,
   **   ~~~   ** Air System Named = CENTRAL SYSTEM did not converge for energy
   **   ~~~   ** Check values should be zero. Most Recent values listed first.
   **   ~~~   ** Demand-to-Supply interface energy check value iteration history trace: 714.018738,714.018737,714.018736,714.018735,714.018734,714.018733,714.018732,714.018731,714.018730,714.018729,
   **   ~~~   ** Supply-to-demand interface deck 1 energy check value iteration history trace: 1202.100644,1202.100642,1202.100641,1202.100639,1202.100637,1202.100635,1202.100634,1202.100632,1202.100630,1202.100628,
   ** Warning ** SimHVAC: Maximum iterations (20) exceeded for all HVAC loops, at ANNUAL, 01/20 10:15 - 10:18
   **   ~~~   ** The solution for one or more of the Air Loop HVAC systems did not appear to converge
   **   ~~~   ** Air System Named = CENTRAL SYSTEM did not converge for mass flow rate
   **   ~~~   ** Check values should be zero. Most Recent values listed first.
   **   ~~~   ** Demand-to-Supply interface mass flow rate check value iteration history trace: 6.176191E-002,6.176191E-002,6.176191E-002,6.176191E-002,6.176191E-002,6.176191E-002,6.176191E-002,6.176191E-002,6.176191E-002,6.176191E-002,
   **   ~~~   ** Supply-to-demand interface deck 1 mass flow rate check value iteration history trace: 6.176191E-002,6.176191E-002,6.176191E-002,6.176191E-002,6.176191E-002,6.176191E-002,6.176191E-002,6.176191E-002,6.176191E-002,6.176191E-002,
   **   ~~~   ** Air System Named = CENTRAL SYSTEM did not converge for energy
   **   ~~~   ** Check values should be zero. Most Recent values listed first.
   **   ~~~   ** Demand-to-Supply interface energy check value iteration history trace: 1223.891939,1223.891938,1223.891937,1223.891936,1223.891934,1223.891933,1223.891932,1223.891930,1223.891929,1223.891928,
   **   ~~~   ** Supply-to-demand interface deck 1 energy check value iteration history trace: 2088.625393,2088.625391,2088.625389,2088.625387,2088.625385,2088.625383,2088.625381,2088.625378,2088.625376,2088.625374,
   ** Warning ** SimHVAC: Maximum iterations (20) exceeded for all HVAC loops, at ANNUAL, 01/23 19:15 - 19:30
   **   ~~~   ** The solution for one or more of the Air Loop HVAC systems did not appear to converge
   **   ~~~   ** Air System Named = CENTRAL SYSTEM did not converge for mass flow rate
   **   ~~~   ** Check values should be zero. Most Recent values listed first.
   **   ~~~   ** Demand-to-Supply interface mass flow rate check value iteration history trace: 4.008574E-002,4.008574E-002,4.008574E-002,4.008574E-002,4.008574E-002,4.008574E-002,4.008574E-002,4.008574E-002,4.008574E-002,4.008574E-002,
   **   ~~~   ** Supply-to-demand interface deck 1 mass flow rate check value iteration history trace: 4.008574E-002,4.008574E-002,4.008574E-002,4.008574E-002,4.008574E-002,4.008574E-002,4.008574E-002,4.008574E-002,4.008574E-002,4.008574E-002,
   **   ~~~   ** Air System Named = CENTRAL SYSTEM did not converge for energy
   **   ~~~   ** Check values should be zero. Most Recent values listed first.
   **   ~~~   ** Demand-to-Supply interface energy check value iteration history trace: 792.932783,792.932782,792.932781,792.932780,792.932779,792.932778,792.932777,792.932776,792.932775,792.932774,
   **   ~~~   ** Supply-to-demand interface deck 1 energy check value iteration history trace: 1233.467869,1233.467868,1233.467866,1233.467865,1233.467863,1233.467862,1233.467861,1233.467859,1233.467858,1233.467856,
   ** Warning ** SimHVAC: Maximum iterations (20) exceeded for all HVAC loops, at ANNUAL, 01/24 19:15 - 19:20
   **   ~~~   ** The solution for one or more of the Air Loop HVAC systems did not appear to converge
   **   ~~~   ** Air System Named = CENTRAL SYSTEM did not converge for mass flow rate
   **   ~~~   ** Check values should be zero. Most Recent values listed first.
   **   ~~~   ** Demand-to-Supply interface mass flow rate check value iteration history trace: 6.175725E-002,6.175725E-002,6.175725E-002,6.175725E-002,6.175725E-002,6.175725E-002,6.175725E-002,6.175725E-002,6.175725E-002,6.175725E-002,
   **   ~~~   ** Supply-to-demand interface deck 1 mass flow rate check value iteration history trace: 6.175725E-002,6.175725E-002,6.175725E-002,6.175725E-002,6.175725E-002,6.175725E-002,6.175725E-002,6.175725E-002,6.175725E-002,6.175725E-002,
   **   ~~~   ** Air System Named = CENTRAL SYSTEM did not converge for energy
   **   ~~~   ** Check values should be zero. Most Recent values listed first.
   **   ~~~   ** Demand-to-Supply interface energy check value iteration history trace: 1223.535250,1223.535249,1223.535248,1223.535247,1223.535246,1223.535245,1223.535244,1223.535243,1223.535242,1223.535241,
   **   ~~~   ** Supply-to-demand interface deck 1 energy check value iteration history trace: 2079.577826,2079.577824,2079.577823,2079.577821,2079.577819,2079.577818,2079.577816,2079.577814,2079.577813,2079.577811,
   ** Warning ** SimHVAC: Maximum iterations (20) exceeded for all HVAC loops, at ANNUAL, 01/29 12:45 - 12:52
   **   ~~~   ** The solution for one or more of the Air Loop HVAC systems did not appear to converge
   **   ~~~   ** Air System Named = CENTRAL SYSTEM did not converge for mass flow rate
   **   ~~~   ** Check values should be zero. Most Recent values listed first.
   **   ~~~   ** Demand-to-Supply interface mass flow rate check value iteration history trace: 8.114852E-002,8.114852E-002,8.114852E-002,8.114852E-002,8.114852E-002,8.114852E-002,8.114852E-002,8.114852E-002,8.114852E-002,8.114852E-002,
   **   ~~~   ** Supply-to-demand interface deck 1 mass flow rate check value iteration history trace: 8.114852E-002,8.114852E-002,8.114852E-002,8.114852E-002,8.114852E-002,8.114852E-002,8.114852E-002,8.114852E-002,8.114852E-002,8.114852E-002,
   **   ~~~   ** Air System Named = CENTRAL SYSTEM did not converge for energy
   **   ~~~   ** Check values should be zero. Most Recent values listed first.
   **   ~~~   ** Demand-to-Supply interface energy check value iteration history trace: 1603.682974,1603.682972,1603.682969,1603.682967,1603.682965,1603.682963,1603.682961,1603.682958,1603.682956,1603.682954,
   **   ~~~   ** Supply-to-demand interface deck 1 energy check value iteration history trace: 2471.100423,2471.100419,2471.100416,2471.100413,2471.100409,2471.100406,2471.100403,2471.100399,2471.100396,2471.100392,
   ** Warning ** SimHVAC: Maximum iterations (20) exceeded for all HVAC loops, at ANNUAL, 01/30 10:45 - 11:00
   **   ~~~   ** The solution for one or more of the Air Loop HVAC systems did not appear to converge
   **   ~~~   ** Air System Named = CENTRAL SYSTEM did not converge for mass flow rate
   **   ~~~   ** Check values should be zero. Most Recent values listed first.
   **   ~~~   ** Demand-to-Supply interface mass flow rate check value iteration history trace: 5.377159E-002,5.377159E-002,5.377159E-002,5.377159E-002,5.377159E-002,5.377159E-002,5.377159E-002,5.377159E-002,5.377159E-002,5.377159E-002,
   **   ~~~   ** Supply-to-demand interface deck 1 mass flow rate check value iteration history trace: 5.377159E-002,5.377159E-002,5.377159E-002,5.377159E-002,5.377159E-002,5.377159E-002,5.377159E-002,5.377159E-002,5.377159E-002,5.377159E-002,
   **   ~~~   ** Air System Named = CENTRAL SYSTEM did not converge for energy
   **   ~~~   ** Check values should be zero. Most Recent values listed first.
   **   ~~~   ** Demand-to-Supply interface energy check value iteration history trace: 1065.549484,1065.549483,1065.549481,1065.549480,1065.549479,1065.549478,1065.549477,1065.549476,1065.549475,1065.549474,
   **   ~~~   ** Supply-to-demand interface deck 1 energy check value iteration history trace: 1839.158105,1839.158104,1839.158102,1839.158100,1839.158098,1839.158096,1839.158094,1839.158092,1839.158090,1839.158088,
   ** Warning ** SimHVAC: Maximum iterations (20) exceeded for all HVAC loops, at ANNUAL, 02/18 08:33 - 08:36
   **   ~~~   ** The solution for one or more of the Air Loop HVAC systems did not appear to converge
   **   ~~~   ** Air System Named = CENTRAL SYSTEM did not converge for mass flow rate
   **   ~~~   ** Check values should be zero. Most Recent values listed first.
   **   ~~~   ** Demand-to-Supply interface mass flow rate check value iteration history trace: 7.247050E-002,7.247050E-002,7.247050E-002,7.247050E-002,7.247050E-002,7.247050E-002,7.247050E-002,7.247050E-002,7.247050E-002,7.247050E-002,
   **   ~~~   ** Supply-to-demand interface deck 1 mass flow rate check value iteration history trace: 7.247050E-002,7.247050E-002,7.247050E-002,7.247050E-002,7.247050E-002,7.247050E-002,7.247050E-002,7.247050E-002,7.247050E-002,7.247050E-002,
   **   ~~~   ** Air System Named = CENTRAL SYSTEM did not converge for energy
   **   ~~~   ** Check values should be zero. Most Recent values listed first.
   **   ~~~   ** Demand-to-Supply interface energy check value iteration history trace: 1430.844969,1430.844968,1430.844968,1430.844968,1430.844967,1430.844967,1430.844966,1430.844966,1430.844965,1430.844965,
   **   ~~~   ** Supply-to-demand interface deck 1 energy check value iteration history trace: 2575.441859,2575.441858,2575.441857,2575.441856,2575.441855,2575.441855,2575.441854,2575.441853,2575.441852,2575.441852,
   ** Warning ** SimHVAC: Maximum iterations (20) exceeded for all HVAC loops, at ANNUAL, 02/27 10:45 - 11:00
   **   ~~~   ** The solution for one or more of the Air Loop HVAC systems did not appear to converge
   **   ~~~   ** Air System Named = CENTRAL SYSTEM did not converge for mass flow rate
   **   ~~~   ** Check values should be zero. Most Recent values listed first.
   **   ~~~   ** Demand-to-Supply interface mass flow rate check value iteration history trace: 6.434747E-002,6.434747E-002,6.434747E-002,6.434747E-002,6.434747E-002,6.434747E-002,6.434747E-002,6.434747E-002,6.434747E-002,6.434747E-002,
   **   ~~~   ** Supply-to-demand interface deck 1 mass flow rate check value iteration history trace: 6.434747E-002,6.434747E-002,6.434747E-002,6.434747E-002,6.434747E-002,6.434747E-002,6.434747E-002,6.434747E-002,6.434747E-002,6.434747E-002,
   **   ~~~   ** Air System Named = CENTRAL SYSTEM did not converge for energy
   **   ~~~   ** Check values should be zero. Most Recent values listed first.
   **   ~~~   ** Demand-to-Supply interface energy check value iteration history trace: 1275.126119,1275.126117,1275.126115,1275.126113,1275.126111,1275.126109,1275.126107,1275.126106,1275.126104,1275.126102,
   **   ~~~   ** Supply-to-demand interface deck 1 energy check value iteration history trace: 2014.318961,2014.318958,2014.318955,2014.318952,2014.318949,2014.318946,2014.318943,2014.318940,2014.318937,2014.318934,
   ** Warning ** SimHVAC: Maximum iterations (20) exceeded for all HVAC loops, at ANNUAL, 03/09 19:35 - 19:40
   **   ~~~   ** The solution for one or more of the Air Loop HVAC systems did not appear to converge
   **   ~~~   ** Air System Named = CENTRAL SYSTEM did not converge for mass flow rate
   **   ~~~   ** Check values should be zero. Most Recent values listed first.
   **   ~~~   ** Demand-to-Supply interface mass flow rate check value iteration history trace: 0.102833,0.102833,0.102833,0.102833,0.102833,0.102833,0.102833,0.102833,0.102833,0.102833,
   **   ~~~   ** Supply-to-demand interface deck 1 mass flow rate check value iteration history trace: 0.102833,0.102833,0.102833,0.102833,0.102833,0.102833,0.102833,0.102833,0.102833,0.102833,
   **   ~~~   ** Air System Named = CENTRAL SYSTEM did not converge for energy
   **   ~~~   ** Check values should be zero. Most Recent values listed first.
   **   ~~~   ** Demand-to-Supply interface energy check value iteration history trace: 2017.738843,2017.738840,2017.738838,2017.738835,2017.738833,2017.738830,2017.738828,2017.738825,2017.738823,2017.738820,
   **   ~~~   ** Supply-to-demand interface deck 1 energy check value iteration history trace: 3129.399523,3129.399519,3129.399515,3129.399511,3129.399507,3129.399503,3129.399500,3129.399496,3129.399492,3129.399488,
   ** Warning ** SimHVAC: Maximum iterations (20) exceeded for all HVAC loops, at ANNUAL, 03/19 09:00 - 09:15
   **   ~~~   ** The solution for one or more of the Air Loop HVAC systems did not appear to converge
   **   ~~~   ** Air System Named = CENTRAL SYSTEM did not converge for mass flow rate
   **   ~~~   ** Check values should be zero. Most Recent values listed first.
   **   ~~~   ** Demand-to-Supply interface mass flow rate check value iteration history trace: 7.209705E-002,7.209705E-002,7.209705E-002,7.209705E-002,7.209705E-002,7.209705E-002,7.209705E-002,7.209705E-002,7.209705E-002,7.209705E-002,
   **   ~~~   ** Supply-to-demand interface deck 1 mass flow rate check value iteration history trace: 7.209705E-002,7.209705E-002,7.209705E-002,7.209705E-002,7.209705E-002,7.209705E-002,7.209705E-002,7.209705E-002,7.209705E-002,7.209705E-002,
   **   ~~~   ** Air System Named = CENTRAL SYSTEM did not converge for energy
   **   ~~~   ** Check values should be zero. Most Recent values listed first.
   **   ~~~   ** Demand-to-Supply interface energy check value iteration history trace: 1426.927762,1426.927761,1426.927760,1426.927759,1426.927758,1426.927757,1426.927756,1426.927755,1426.927754,1426.927753,
   **   ~~~   ** Supply-to-demand interface deck 1 energy check value iteration history trace: 2557.502015,2557.502013,2557.502012,2557.502010,2557.502008,2557.502006,2557.502004,2557.502003,2557.502001,2557.501999,
   ** Warning ** SimHVAC: Maximum iterations (20) exceeded for all HVAC loops, at ANNUAL, 03/26 10:54 - 10:57
   **   ~~~   ** The solution for one or more of the Air Loop HVAC systems did not appear to converge
   **   ~~~   ** Air System Named = CENTRAL SYSTEM did not converge for mass flow rate
   **   ~~~   ** Check values should be zero. Most Recent values listed first.
   **   ~~~   ** Demand-to-Supply interface mass flow rate check value iteration history trace: 7.532973E-002,7.532973E-002,7.532973E-002,7.532973E-002,7.532973E-002,7.532973E-002,7.532973E-002,7.532973E-002,7.532973E-002,7.532973E-002,
   **   ~~~   ** Supply-to-demand interface deck 1 mass flow rate check value iteration history trace: 7.532973E-002,7.532973E-002,7.532973E-002,7.532973E-002,7.532973E-002,7.532973E-002,7.532973E-002,7.532973E-002,7.532973E-002,7.532973E-002,
   **   ~~~   ** Air System Named = CENTRAL SYSTEM did not converge for energy
   **   ~~~   ** Check values should be zero. Most Recent values listed first.
   **   ~~~   ** Demand-to-Supply interface energy check value iteration history trace: 1488.308492,1488.308491,1488.308489,1488.308488,1488.308487,1488.308485,1488.308484,1488.308482,1488.308481,1488.308480,
   **   ~~~   ** Supply-to-demand interface deck 1 energy check value iteration history trace: 2612.660758,2612.660756,2612.660753,2612.660751,2612.660748,2612.660746,2612.660743,2612.660741,2612.660738,2612.660736,
   ** Warning ** SimHVAC: Maximum iterations (20) exceeded for all HVAC loops, at ANNUAL, 03/27 09:10 - 09:12
   **   ~~~   ** The solution for one or more of the Air Loop HVAC systems did not appear to converge
   **   ~~~   ** Air System Named = CENTRAL SYSTEM did not converge for mass flow rate
   **   ~~~   ** Check values should be zero. Most Recent values listed first.
   **   ~~~   ** Demand-to-Supply interface mass flow rate check value iteration history trace: 6.546094E-002,6.546094E-002,6.546094E-002,6.546094E-002,6.546094E-002,6.546094E-002,6.546094E-002,6.546094E-002,6.546094E-002,6.546094E-002,
   **   ~~~   ** Supply-to-demand interface deck 1 mass flow rate check value iteration history trace: 6.546094E-002,6.546094E-002,6.546094E-002,6.546094E-002,6.546094E-002,6.546094E-002,6.546094E-002,6.546094E-002,6.546094E-002,6.546094E-002,
   **   ~~~   ** Air System Named = CENTRAL SYSTEM did not converge for energy
   **   ~~~   ** Check values should be zero. Most Recent values listed first.
   **   ~~~   ** Demand-to-Supply interface energy check value iteration history trace: 1293.542104,1293.542103,1293.542102,1293.542101,1293.542100,1293.542100,1293.542099,1293.542098,1293.542097,1293.542096,
   **   ~~~   ** Supply-to-demand interface deck 1 energy check value iteration history trace: 2375.634330,2375.634328,2375.634327,2375.634325,2375.634324,2375.634322,2375.634320,2375.634319,2375.634317,2375.634316,
   ** Warning ** SimHVAC: Maximum iterations (20) exceeded for all HVAC loops, at ANNUAL, 04/18 13:45 - 14:00
   **   ~~~   ** The solution for one or more of the Air Loop HVAC systems did not appear to converge
   **   ~~~   ** Air System Named = CENTRAL SYSTEM did not converge for mass flow rate
   **   ~~~   ** Check values should be zero. Most Recent values listed first.
   **   ~~~   ** Demand-to-Supply interface mass flow rate check value iteration history trace: 6.419574E-002,6.419574E-002,6.419574E-002,6.419574E-002,6.419574E-002,6.419574E-002,6.419574E-002,6.419574E-002,6.419574E-002,6.419574E-002,
   **   ~~~   ** Supply-to-demand interface deck 1 mass flow rate check value iteration history trace: 6.419574E-002,6.419574E-002,6.419574E-002,6.419574E-002,6.419574E-002,6.419574E-002,6.419574E-002,6.419574E-002,6.419574E-002,6.419574E-002,
   **   ~~~   ** Air System Named = CENTRAL SYSTEM did not converge for energy
   **   ~~~   ** Check values should be zero. Most Recent values listed first.
   **   ~~~   ** Demand-to-Supply interface energy check value iteration history trace: 1261.374745,1261.374743,1261.374740,1261.374738,1261.374735,1261.374733,1261.374730,1261.374727,1261.374725,1261.374722,
   **   ~~~   ** Supply-to-demand interface deck 1 energy check value iteration history trace: 2251.399566,2251.399562,2251.399557,2251.399553,2251.399548,2251.399544,2251.399539,2251.399535,2251.399530,2251.399526,
   **   ~~~   ** Node named ZONE INLET NODE shows oscillating temperatures across iterations with a repeated value of 34.901796
   **   ~~~   ** Node named ZONE INLET NODE temperature [C] iteration history trace (most recent first): 34.901796,34.901796,34.901796,34.901795,34.901795,34.901795,34.901795,34.901794,34.901794,34.901794,
   ************* Simulation Error Summary *************
   ** Warning ** The following Report Variables were requested but not generated -- check.rdd file
   **   ~~~   ** Either the IDF did not contain these elements, the variable name is misspelled,
   **   ~~~   ** or the requested variable is an advanced output which requires Output : Diagnostics, DisplayAdvancedReportVariables;
   ************* Key=*, VarName=BASEBOARD TOTAL HEATING ENERGY, Frequency=
   ************* Key=*, VarName=WATER HEATER NATURALGAS ENERGY, Frequency=
   ************* Key=*, VarName=COOLING COIL TOTAL HEATING ENERGY, Frequency=
   ************* There are 34 unused schedules in input.
   ************* There are 388 unused week schedules in input.
   ************* There are 396 unused day schedules in input.
   ************* Use Output:Diagnostics,DisplayUnusedSchedules; to see them.
   *************
   ************* ===== Recurring Error Summary =====
   ************* The following recurring error messages occurred.
   *************
   *************  ** Warning ** "TOTAL HOT WATER LOAD" - Target water temperature should be less than or equal to the hot water temperature error continues...
   *************  **   ~~~   **   This error occurred 121815 total times;
   *************  **   ~~~   **   during Warmup 0 times;
   *************  **   ~~~   **   during Sizing 0 times.
   *************  **   ~~~   **   Max=18.481728  Min=4.327582E-005
   *************
   *************  ** Warning ** SimHVAC: Exceeding Maximum iterations for all HVAC loops, during ANNUAL continues
   *************  **   ~~~   **   This error occurred 6 total times;
   *************  **   ~~~   **   during Warmup 0 times;
   *************  **   ~~~   **   during Sizing 0 times.
   *************
   *************
   ************* ===== Final Error Summary =====
   ************* The following error categories occurred.  Consider correcting or noting.
   ************* Nominally Unused Constructions
   ************* ..The nominally unused constructions warning is provided to alert you to potential conditions that can cause
   ************* ..extra time during simulation. Each construction is calculated by the algorithm indicated in the HeatBalanceAlgorithm
   ************* ..object. You may remove the constructions indicated (when you use the DisplayExtraWarnings option).
   *************
   ************* EnergyPlus Warmup Error Summary. During Warmup: 1 Warning; 0 Severe Errors.
   ************* EnergyPlus Sizing Error Summary. During Sizing: 4 Warning; 0 Severe Errors.
   ************* EnergyPlus Completed Successfully-- 121853 Warning; 0 Severe Errors; Elapsed Time=00hr 06min  0.10sec
