Program Version,EnergyPlus, Version 22.2.0-c249759bad, YMD=2023.09.01 19:47,
   ************* Beginning Zone Sizing Calculations
   ** Warning ** ProcessScheduleInput: Schedule:Constant="ALWAYS ON DISCRETE", Schedule Type Limits Name="ONOFF" not found -- will not be validated
   ** Warning ** Foundation:Kiva="KIVA FOUNDATION", no Interior Horizontal Insulation Material Name defined
   **   ~~~   ** Interior Horizontal Insulation Depth will not be used.
   ** Warning ** CheckUsedConstructions: There are 15 nominally unused constructions in input.
   **   ~~~   ** Each Unused construction is shown.
   ************* Construction=INTERIOR FLOOR
   ************* Construction=INTERIOR WINDOW
   ************* Construction=EXTERIOR DOOR
   ************* Construction=INTERIOR DOOR
   ************* Construction=GABLE CONSTRUCTION
   ************* Construction=CRAWL_FLOOR
   ************* Construction=INSULATED PIPE
   ************* Construction=PLAIN PIPE
   ************* Construction=TDD PIPE
   ************* Construction=TDD DOME
   ************* Construction=TDD DIFFUSER
   ************* Construction=CRAWL WALL
   ************* Construction=CEILING-FLOOR-LAYER
   ************* Construction=SLAB CONSTRUCTION W FULL R10 INSULATION
   ************* Construction=SLAB CONSTRUCTION W FULL R5 INSULATION
   ** Warning ** GetDXCoils: Coil:Heating:DX:SingleSpeed="DX_HEATING_COIL" curve values
   **   ~~~   ** ... Defrost Energy Input Ratio Function of Temperature Curve Name = DEFROSTEIR output is not equal to 1.0 (+ or - 10%) at rated conditions.
   **   ~~~   ** ... Curve output at rated conditions = 0.152
   ************* Beginning System Sizing Calculations
   ************* Beginning Plant Sizing Calculations
   ** Warning ** Coil:WaterHeating:AirToWaterHeatPump:Wrapped "HEAT PUMP WATER HEATER EVAPORATOR": Rated air volume flow rate per watt of rated total water heating capacity is out of range
   **   ~~~   ** Min Rated Vol Flow Per Watt=[4.027E-005], Rated Vol Flow Per Watt=[1.510E-004], Max Rated Vol Flow Per Watt=[8.056E-005]. See Input-Output Reference Manual for valid range.
   ************* SizeFan: : Potential issue with equipment sizing for Fan:OnOff HEAT PUMP WATER HEATER FAN
   **   ~~~   ** User-Specified Maximum Flow Rate [m3/s] = 0.22653
   **   ~~~   ** differs from Design Size Maximum Flow Rate [m3/s] = 7.55250E-002
   **   ~~~   ** This may, or may not, indicate mismatched component sizes.
   **   ~~~   ** Verify that the value entered is intended and is consistent with other components.
   ** Warning ** Water heater = WATER HEATER TANK:  Recovery Efficiency and Energy Factor could not be calculated during the test for standard ratings
   **   ~~~   ** Setpoint was never recovered and/or heater never turned on
   ** Warning ** Check input. Pump nominal power or motor efficiency is set to 0, for pump=MAINS PRESSURE
   ** Warning ** Output:Meter: invalid Key Name="ELECTRIC_RANGE:INTERIOREQUIPMENT:ELECTRICITY" - not found.
   ** Warning ** Output:Meter: invalid Key Name="ELECTRIC_DRYER:INTERIOREQUIPMENT:ELECTRICITY" - not found.
   ** Warning ** Output:Meter: invalid Key Name="HEATRECOVERY:ELECTRICITY" - not found.
   ** Warning ** Output:Meter: invalid Key Name="HEATING:NATURALGAS" - not found.
   ** Warning ** Output:Meter: invalid Key Name="WATERSYSTEMS:NATURALGAS" - not found.
   ** Warning ** Output:Meter: invalid Key Name="PROPANE:FACILITY" - not found.
   ** Warning ** Output:Meter: invalid Key Name="HEATING:PROPANE" - not found.
   ************* Testing Individual Branch Integrity
   ************* All Branches passed integrity testing
   ************* Testing Individual Supply Air Path Integrity
   ************* All Supply Air Paths passed integrity testing
   ************* Testing Individual Return Air Path Integrity
   ************* All Return Air Paths passed integrity testing
   ************* No node connection errors were found.
   ************* Beginning Simulation
   ** Warning ** AirflowNetwork::Solver::validate_distribution: Heat pump water heater is simulated along with an AirflowNetwork but is not included in the AirflowNetwork.
   ** Warning ** CalcEquipmentFlowRates: "TOTAL HOT WATER LOAD" - Target water temperature is greater than the hot water temperature by (4.30 C)
   **   ~~~   **  Environment=EXTREME_WINTER, at Simulation time=01/06 06:00 - 06:15
   **   ~~~   ** ...target water temperature     = 53.33 C
   **   ~~~   ** ...hot water temperature        = 49.03 C
   **   ~~~   ** ...Target water temperature should be less than or equal to the hot water temperature. Verify temperature setpoints and schedules.
   ** Warning ** SimHVAC: Maximum iterations (20) exceeded for all HVAC loops, at ANNUAL, 01/21 08:47 - 08:50
   **   ~~~   ** The solution for one or more of the Air Loop HVAC systems did not appear to converge
   **   ~~~   ** Air System Named = CENTRAL SYSTEM did not converge for mass flow rate
   **   ~~~   ** Check values should be zero. Most Recent values listed first.
   **   ~~~   ** Demand-to-Supply interface mass flow rate check value iteration history trace: 6.068953E-002,6.068953E-002,6.068953E-002,6.068953E-002,6.068953E-002,6.068953E-002,6.068953E-002,6.068953E-002,6.068953E-002,6.068953E-002,
   **   ~~~   ** Supply-to-demand interface deck 1 mass flow rate check value iteration history trace: 6.068953E-002,6.068953E-002,6.068953E-002,6.068953E-002,6.068953E-002,6.068953E-002,6.068953E-002,6.068953E-002,6.068953E-002,6.068953E-002,
   **   ~~~   ** Air System Named = CENTRAL SYSTEM did not converge for energy
   **   ~~~   ** Check values should be zero. Most Recent values listed first.
   **   ~~~   ** Demand-to-Supply interface energy check value iteration history trace: 1198.726344,1198.726344,1198.726344,1198.726344,1198.726344,1198.726344,1198.726344,1198.726344,1198.726343,1198.726343,
   **   ~~~   ** Supply-to-demand interface deck 1 energy check value iteration history trace: 2165.072430,2165.072430,2165.072430,2165.072429,2165.072429,2165.072429,2165.072429,2165.072429,2165.072429,2165.072429,
   ** Warning ** SimHVAC: Maximum iterations (20) exceeded for all HVAC loops, at ANNUAL, 02/01 08:45 - 09:00
   **   ~~~   ** The solution for one or more of the Air Loop HVAC systems did not appear to converge
   **   ~~~   ** Air System Named = CENTRAL SYSTEM did not converge for mass flow rate
   **   ~~~   ** Check values should be zero. Most Recent values listed first.
   **   ~~~   ** Demand-to-Supply interface mass flow rate check value iteration history trace: 6.008341E-002,6.008341E-002,6.008341E-002,6.008341E-002,6.008341E-002,6.008341E-002,6.008341E-002,6.008341E-002,6.008341E-002,6.008341E-002,
   **   ~~~   ** Supply-to-demand interface deck 1 mass flow rate check value iteration history trace: 6.008341E-002,6.008341E-002,6.008341E-002,6.008341E-002,6.008341E-002,6.008341E-002,6.008341E-002,6.008341E-002,6.008341E-002,6.008341E-002,
   **   ~~~   ** Air System Named = CENTRAL SYSTEM did not converge for energy
   **   ~~~   ** Check values should be zero. Most Recent values listed first.
   **   ~~~   ** Demand-to-Supply interface energy check value iteration history trace: 1190.568601,1190.568601,1190.568601,1190.568601,1190.568601,1190.568601,1190.568601,1190.568601,1190.568600,1190.568600,
   **   ~~~   ** Supply-to-demand interface deck 1 energy check value iteration history trace: 2057.906222,2057.906222,2057.906222,2057.906222,2057.906222,2057.906222,2057.906222,2057.906222,2057.906222,2057.906222,
   ** Warning ** SimHVAC: Maximum iterations (20) exceeded for all HVAC loops, at ANNUAL, 02/01 08:45 - 08:50
   **   ~~~   ** The solution for one or more of the Air Loop HVAC systems did not appear to converge
   **   ~~~   ** Air System Named = CENTRAL SYSTEM did not converge for mass flow rate
   **   ~~~   ** Check values should be zero. Most Recent values listed first.
   **   ~~~   ** Demand-to-Supply interface mass flow rate check value iteration history trace: 6.051703E-002,6.051703E-002,6.051703E-002,6.051703E-002,6.051703E-002,6.051703E-002,6.051703E-002,6.051703E-002,6.051703E-002,6.051703E-002,
   **   ~~~   ** Supply-to-demand interface deck 1 mass flow rate check value iteration history trace: 6.051703E-002,6.051703E-002,6.051703E-002,6.051703E-002,6.051703E-002,6.051703E-002,6.051703E-002,6.051703E-002,6.051703E-002,6.051703E-002,
   **   ~~~   ** Air System Named = CENTRAL SYSTEM did not converge for energy
   **   ~~~   ** Check values should be zero. Most Recent values listed first.
   **   ~~~   ** Demand-to-Supply interface energy check value iteration history trace: 1199.161110,1199.161110,1199.161110,1199.161110,1199.161110,1199.161110,1199.161110,1199.161110,1199.161110,1199.161110,
   **   ~~~   ** Supply-to-demand interface deck 1 energy check value iteration history trace: 2072.743169,2072.743169,2072.743169,2072.743169,2072.743169,2072.743168,2072.743168,2072.743168,2072.743168,2072.743168,
   ** Warning ** SimHVAC: Maximum iterations (20) exceeded for all HVAC loops, at ANNUAL, 02/03 09:18 - 09:20
   **   ~~~   ** The solution for one or more of the Air Loop HVAC systems did not appear to converge
   **   ~~~   ** Air System Named = CENTRAL SYSTEM did not converge for mass flow rate
   **   ~~~   ** Check values should be zero. Most Recent values listed first.
   **   ~~~   ** Demand-to-Supply interface mass flow rate check value iteration history trace: 6.986903E-002,6.986903E-002,6.986903E-002,6.986903E-002,6.986903E-002,6.986903E-002,6.986903E-002,6.986903E-002,6.986903E-002,6.986903E-002,
   **   ~~~   ** Supply-to-demand interface deck 1 mass flow rate check value iteration history trace: 6.986903E-002,6.986903E-002,6.986903E-002,6.986903E-002,6.986903E-002,6.986903E-002,6.986903E-002,6.986903E-002,6.986903E-002,6.986903E-002,
   **   ~~~   ** Air System Named = CENTRAL SYSTEM did not converge for energy
   **   ~~~   ** Check values should be zero. Most Recent values listed first.
   **   ~~~   ** Demand-to-Supply interface energy check value iteration history trace: 1380.538312,1380.538312,1380.538312,1380.538312,1380.538312,1380.538312,1380.538312,1380.538311,1380.538311,1380.538311,
   **   ~~~   ** Supply-to-demand interface deck 1 energy check value iteration history trace: 2380.705372,2380.705372,2380.705372,2380.705372,2380.705372,2380.705372,2380.705372,2380.705371,2380.705371,2380.705371,
   ** Warning ** SimHVAC: Maximum iterations (20) exceeded for all HVAC loops, at ANNUAL, 02/06 08:51 - 08:52
   **   ~~~   ** The solution for one or more of the Air Loop HVAC systems did not appear to converge
   **   ~~~   ** Air System Named = CENTRAL SYSTEM did not converge for mass flow rate
   **   ~~~   ** Check values should be zero. Most Recent values listed first.
   **   ~~~   ** Demand-to-Supply interface mass flow rate check value iteration history trace: 6.672370E-002,6.672370E-002,6.672370E-002,6.672370E-002,6.672370E-002,6.672370E-002,6.672370E-002,6.672370E-002,6.672370E-002,6.672370E-002,
   **   ~~~   ** Supply-to-demand interface deck 1 mass flow rate check value iteration history trace: 6.672370E-002,6.672370E-002,6.672370E-002,6.672370E-002,6.672370E-002,6.672370E-002,6.672370E-002,6.672370E-002,6.672370E-002,6.672370E-002,
   **   ~~~   ** Air System Named = CENTRAL SYSTEM did not converge for energy
   **   ~~~   ** Check values should be zero. Most Recent values listed first.
   **   ~~~   ** Demand-to-Supply interface energy check value iteration history trace: 1320.025488,1320.025488,1320.025488,1320.025488,1320.025488,1320.025488,1320.025488,1320.025488,1320.025488,1320.025488,
   **   ~~~   ** Supply-to-demand interface deck 1 energy check value iteration history trace: 2357.401398,2357.401398,2357.401398,2357.401398,2357.401398,2357.401398,2357.401398,2357.401398,2357.401398,2357.401398,
   ** Warning ** SimHVAC: Maximum iterations (20) exceeded for all HVAC loops, at ANNUAL, 02/17 10:30 - 10:45
   **   ~~~   ** The solution for one or more of the Air Loop HVAC systems did not appear to converge
   **   ~~~   ** Air System Named = CENTRAL SYSTEM did not converge for mass flow rate
   **   ~~~   ** Check values should be zero. Most Recent values listed first.
   **   ~~~   ** Demand-to-Supply interface mass flow rate check value iteration history trace: 5.345010E-002,5.345010E-002,5.345010E-002,5.345010E-002,5.345010E-002,5.345010E-002,5.345010E-002,5.345010E-002,5.345010E-002,5.345010E-002,
   **   ~~~   ** Supply-to-demand interface deck 1 mass flow rate check value iteration history trace: 5.345010E-002,5.345010E-002,5.345010E-002,5.345010E-002,5.345010E-002,5.345010E-002,5.345010E-002,5.345010E-002,5.345010E-002,5.345010E-002,
   **   ~~~   ** Air System Named = CENTRAL SYSTEM did not converge for energy
   **   ~~~   ** Check values should be zero. Most Recent values listed first.
   **   ~~~   ** Demand-to-Supply interface energy check value iteration history trace: 1059.193751,1059.193751,1059.193751,1059.193751,1059.193751,1059.193750,1059.193750,1059.193750,1059.193750,1059.193750,
   **   ~~~   ** Supply-to-demand interface deck 1 energy check value iteration history trace: 1908.676057,1908.676057,1908.676057,1908.676057,1908.676057,1908.676057,1908.676057,1908.676057,1908.676057,1908.676057,
   ** Warning ** SimHVAC: Maximum iterations (20) exceeded for all HVAC loops, at ANNUAL, 02/21 08:36 - 08:39
   **   ~~~   ** The solution for one or more of the Air Loop HVAC systems did not appear to converge
   **   ~~~   ** Air System Named = CENTRAL SYSTEM did not converge for mass flow rate
   **   ~~~   ** Check values should be zero. Most Recent values listed first.
   **   ~~~   ** Demand-to-Supply interface mass flow rate check value iteration history trace: 5.675716E-002,5.675716E-002,5.675716E-002,5.675716E-002,5.675716E-002,5.675716E-002,5.675716E-002,5.675716E-002,5.675716E-002,5.675716E-002,
   **   ~~~   ** Supply-to-demand interface deck 1 mass flow rate check value iteration history trace: 5.675716E-002,5.675716E-002,5.675716E-002,5.675716E-002,5.675716E-002,5.675716E-002,5.675716E-002,5.675716E-002,5.675716E-002,5.675716E-002,
   **   ~~~   ** Air System Named = CENTRAL SYSTEM did not converge for energy
   **   ~~~   ** Check values should be zero. Most Recent values listed first.
   **   ~~~   ** Demand-to-Supply interface energy check value iteration history trace: 1120.212643,1120.212643,1120.212643,1120.212643,1120.212642,1120.212642,1120.212642,1120.212642,1120.212642,1120.212642,
   **   ~~~   ** Supply-to-demand interface deck 1 energy check value iteration history trace: 2001.837527,2001.837527,2001.837527,2001.837527,2001.837527,2001.837527,2001.837527,2001.837527,2001.837527,2001.837527,
   ** Warning ** SimHVAC: Maximum iterations (20) exceeded for all HVAC loops, at ANNUAL, 03/25 07:11 - 07:15
   **   ~~~   ** The solution for one or more of the Air Loop HVAC systems did not appear to converge
   **   ~~~   ** Air System Named = CENTRAL SYSTEM did not converge for mass flow rate
   **   ~~~   ** Check values should be zero. Most Recent values listed first.
   **   ~~~   ** Demand-to-Supply interface mass flow rate check value iteration history trace: 6.503384E-002,6.503384E-002,6.503384E-002,6.503384E-002,6.503384E-002,6.503384E-002,6.503384E-002,6.503384E-002,6.503384E-002,6.503384E-002,
   **   ~~~   ** Supply-to-demand interface deck 1 mass flow rate check value iteration history trace: 6.503384E-002,6.503384E-002,6.503384E-002,6.503384E-002,6.503384E-002,6.503384E-002,6.503384E-002,6.503384E-002,6.503384E-002,6.503384E-002,
   **   ~~~   ** Air System Named = CENTRAL SYSTEM did not converge for energy
   **   ~~~   ** Check values should be zero. Most Recent values listed first.
   **   ~~~   ** Demand-to-Supply interface energy check value iteration history trace: 1531.979196,1531.979196,1531.979197,1531.979197,1531.979197,1531.979197,1531.979198,1531.979198,1531.979198,1531.979198,
   **   ~~~   ** Supply-to-demand interface deck 1 energy check value iteration history trace: 842.744562,842.744563,842.744563,842.744563,842.744563,842.744563,842.744563,842.744563,842.744564,842.744564,
   ** Warning ** SimHVAC: Maximum iterations (20) exceeded for all HVAC loops, at ANNUAL, 03/26 08:50 - 08:52
   **   ~~~   ** The solution for one or more of the Air Loop HVAC systems did not appear to converge
   **   ~~~   ** Air System Named = CENTRAL SYSTEM did not converge for mass flow rate
   **   ~~~   ** Check values should be zero. Most Recent values listed first.
   **   ~~~   ** Demand-to-Supply interface mass flow rate check value iteration history trace: 0.226174,0.226174,0.226174,0.226174,0.226174,0.226174,0.226174,0.226174,0.226174,0.226174,
   **   ~~~   ** Supply-to-demand interface deck 1 mass flow rate check value iteration history trace: 0.226174,0.226174,0.226174,0.226174,0.226174,0.226174,0.226174,0.226174,0.226174,0.226174,
   **   ~~~   ** Air System Named = CENTRAL SYSTEM did not converge for energy
   **   ~~~   ** Check values should be zero. Most Recent values listed first.
   **   ~~~   ** Demand-to-Supply interface energy check value iteration history trace: 5363.146758,5363.146759,5363.146761,5363.146762,5363.146763,5363.146765,5363.146766,5363.146767,5363.146769,5363.146770,
   **   ~~~   ** Supply-to-demand interface deck 1 energy check value iteration history trace: 2987.629239,2987.629240,2987.629241,2987.629241,2987.629242,2987.629243,2987.629243,2987.629244,2987.629245,2987.629246,
   ** Warning ** SimHVAC: Maximum iterations (20) exceeded for all HVAC loops, at ANNUAL, 03/26 23:30 - 23:45
   **   ~~~   ** The solution for one or more of the Air Loop HVAC systems did not appear to converge
   **   ~~~   ** Air System Named = CENTRAL SYSTEM did not converge for mass flow rate
   **   ~~~   ** Check values should be zero. Most Recent values listed first.
   **   ~~~   ** Demand-to-Supply interface mass flow rate check value iteration history trace: 2.680724E-002,2.680724E-002,2.680724E-002,2.680724E-002,2.680724E-002,2.680724E-002,2.680724E-002,2.680724E-002,2.680724E-002,2.680724E-002,
   **   ~~~   ** Supply-to-demand interface deck 1 mass flow rate check value iteration history trace: 2.680724E-002,2.680724E-002,2.680724E-002,2.680724E-002,2.680724E-002,2.680724E-002,2.680724E-002,2.680724E-002,2.680724E-002,2.680724E-002,
   **   ~~~   ** Air System Named = CENTRAL SYSTEM did not converge for energy
   **   ~~~   ** Check values should be zero. Most Recent values listed first.
   **   ~~~   ** Demand-to-Supply interface energy check value iteration history trace: 651.207003,651.207003,651.207003,651.207003,651.207003,651.207004,651.207004,651.207004,651.207004,651.207004,
   **   ~~~   ** Supply-to-demand interface deck 1 energy check value iteration history trace: 362.488207,362.488207,362.488207,362.488207,362.488208,362.488208,362.488208,362.488208,362.488208,362.488208,
   ** Warning ** SimHVAC: Maximum iterations (20) exceeded for all HVAC loops, at ANNUAL, 03/27 08:30 - 08:34
   **   ~~~   ** The solution for one or more of the Air Loop HVAC systems did not appear to converge
   **   ~~~   ** Air System Named = CENTRAL SYSTEM did not converge for mass flow rate
   **   ~~~   ** Check values should be zero. Most Recent values listed first.
   **   ~~~   ** Demand-to-Supply interface mass flow rate check value iteration history trace: 2.014962E-002,2.014962E-002,2.014962E-002,2.014962E-002,2.014962E-002,2.014962E-002,2.014962E-002,2.014962E-002,2.014962E-002,2.014962E-002,
   **   ~~~   ** Supply-to-demand interface deck 1 mass flow rate check value iteration history trace: 2.014962E-002,2.014962E-002,2.014962E-002,2.014962E-002,2.014962E-002,2.014962E-002,2.014962E-002,2.014962E-002,2.014962E-002,2.014962E-002,
   **   ~~~   ** Air System Named = CENTRAL SYSTEM did not converge for energy
   **   ~~~   ** Check values should be zero. Most Recent values listed first.
   **   ~~~   ** Demand-to-Supply interface energy check value iteration history trace: 469.320094,469.320094,469.320094,469.320094,469.320094,469.320094,469.320094,469.320094,469.320094,469.320094,
   **   ~~~   ** Supply-to-demand interface deck 1 energy check value iteration history trace: 269.424117,269.424117,269.424117,269.424117,269.424117,269.424117,269.424117,269.424117,269.424117,269.424117,
   ** Warning ** SimHVAC: Maximum iterations (20) exceeded for all HVAC loops, at ANNUAL, 03/27 23:23 - 23:30
   **   ~~~   ** The solution for one or more of the Air Loop HVAC systems did not appear to converge
   **   ~~~   ** Air System Named = CENTRAL SYSTEM did not converge for mass flow rate
   **   ~~~   ** Check values should be zero. Most Recent values listed first.
   **   ~~~   ** Demand-to-Supply interface mass flow rate check value iteration history trace: 0.132080,0.132080,0.132080,0.132080,0.132080,0.132080,0.132080,0.132080,0.132080,0.132080,
   **   ~~~   ** Supply-to-demand interface deck 1 mass flow rate check value iteration history trace: 0.132080,0.132080,0.132080,0.132080,0.132080,0.132080,0.132080,0.132080,0.132080,0.132080,
   **   ~~~   ** Air System Named = CENTRAL SYSTEM did not converge for energy
   **   ~~~   ** Check values should be zero. Most Recent values listed first.
   **   ~~~   ** Demand-to-Supply interface energy check value iteration history trace: 3268.050890,3268.050890,3268.050891,3268.050892,3268.050893,3268.050894,3268.050895,3268.050896,3268.050897,3268.050897,
   **   ~~~   ** Supply-to-demand interface deck 1 energy check value iteration history trace: 1739.568819,1739.568819,1739.568820,1739.568820,1739.568820,1739.568821,1739.568821,1739.568822,1739.568822,1739.568823,
   ** Warning ** SimHVAC: Maximum iterations (20) exceeded for all HVAC loops, at ANNUAL, 04/02 04:25 - 04:30
   **   ~~~   ** The solution for one or more of the Air Loop HVAC systems did not appear to converge
   **   ~~~   ** Air System Named = CENTRAL SYSTEM did not converge for mass flow rate
   **   ~~~   ** Check values should be zero. Most Recent values listed first.
   **   ~~~   ** Demand-to-Supply interface mass flow rate check value iteration history trace: 1.315797E-002,1.315797E-002,1.315797E-002,1.315797E-002,1.315797E-002,1.315797E-002,1.315797E-002,1.315797E-002,1.315797E-002,1.315797E-002,
   **   ~~~   ** Supply-to-demand interface deck 1 mass flow rate check value iteration history trace: 1.315797E-002,1.315797E-002,1.315797E-002,1.315797E-002,1.315797E-002,1.315797E-002,1.315797E-002,1.315797E-002,1.315797E-002,1.315797E-002,
   **   ~~~   ** Air System Named = CENTRAL SYSTEM did not converge for energy
   **   ~~~   ** Check values should be zero. Most Recent values listed first.
   **   ~~~   ** Demand-to-Supply interface energy check value iteration history trace: 325.323543,325.323543,325.323543,325.323543,325.323543,325.323543,325.323543,325.323543,325.323543,325.323543,
   **   ~~~   ** Supply-to-demand interface deck 1 energy check value iteration history trace: 185.678649,185.678649,185.678649,185.678649,185.678649,185.678649,185.678649,185.678649,185.678649,185.678649,
   ** Warning ** SimHVAC: Maximum iterations (20) exceeded for all HVAC loops, at ANNUAL, 04/03 08:56 - 08:58
   **   ~~~   ** The solution for one or more of the Air Loop HVAC systems did not appear to converge
   **   ~~~   ** Air System Named = CENTRAL SYSTEM did not converge for mass flow rate
   **   ~~~   ** Check values should be zero. Most Recent values listed first.
   **   ~~~   ** Demand-to-Supply interface mass flow rate check value iteration history trace: 0.250877,0.250877,0.250877,0.250877,0.250877,0.250877,0.250877,0.250877,0.250877,0.250877,
   **   ~~~   ** Supply-to-demand interface deck 1 mass flow rate check value iteration history trace: 0.250877,0.250877,0.250877,0.250877,0.250877,0.250877,0.250877,0.250877,0.250877,0.250877,
   **   ~~~   ** Air System Named = CENTRAL SYSTEM did not converge for energy
   **   ~~~   ** Check values should be zero. Most Recent values listed first.
   **   ~~~   ** Demand-to-Supply interface energy check value iteration history trace: 5961.790653,5961.790653,5961.790653,5961.790654,5961.790654,5961.790655,5961.790655,5961.790655,5961.790656,5961.790656,
   **   ~~~   ** Supply-to-demand interface deck 1 energy check value iteration history trace: 2941.143034,2941.143034,2941.143034,2941.143034,2941.143034,2941.143035,2941.143035,2941.143035,2941.143035,2941.143035,
   ************* Simulation Error Summary *************
   ** Warning ** The following Report Variables were requested but not generated -- check.rdd file
   **   ~~~   ** Either the IDF did not contain these elements, the variable name is misspelled,
   **   ~~~   ** or the requested variable is an advanced output which requires Output : Diagnostics, DisplayAdvancedReportVariables;
   ************* Key=*, VarName=BASEBOARD TOTAL HEATING ENERGY, Frequency=
   ************* Key=*, VarName=WATER HEATER NATURALGAS ENERGY, Frequency=
   ************* Key=*, VarName=COOLING COIL TOTAL HEATING ENERGY, Frequency=
   ************* There are 34 unused schedules in input.
   ************* There are 388 unused week schedules in input.
   ************* There are 396 unused day schedules in input.
   ************* Use Output:Diagnostics,DisplayUnusedSchedules; to see them.
   *************
   ************* ===== Recurring Error Summary =====
   ************* The following recurring error messages occurred.
   *************
   *************  ** Warning ** "TOTAL HOT WATER LOAD" - Target water temperature should be less than or equal to the hot water temperature error continues...
   *************  **   ~~~   **   This error occurred 147811 total times;
   *************  **   ~~~   **   during Warmup 0 times;
   *************  **   ~~~   **   during Sizing 0 times.
   *************  **   ~~~   **   Max=10.635086  Min=1.314344E-003
   *************
   *************  ** Warning ** SimHVAC: Exceeding Maximum iterations for all HVAC loops, during ANNUAL continues
   *************  **   ~~~   **   This error occurred 10 total times;
   *************  **   ~~~   **   during Warmup 0 times;
   *************  **   ~~~   **   during Sizing 0 times.
   *************
   *************
   ************* ===== Final Error Summary =====
   ************* The following error categories occurred.  Consider correcting or noting.
   ************* Nominally Unused Constructions
   ************* ..The nominally unused constructions warning is provided to alert you to potential conditions that can cause
   ************* ..extra time during simulation. Each construction is calculated by the algorithm indicated in the HeatBalanceAlgorithm
   ************* ..object. You may remove the constructions indicated (when you use the DisplayExtraWarnings option).
   *************
   ************* EnergyPlus Warmup Error Summary. During Warmup: 1 Warning; 0 Severe Errors.
   ************* EnergyPlus Sizing Error Summary. During Sizing: 4 Warning; 0 Severe Errors.
   ************* EnergyPlus Completed Successfully-- 147852 Warning; 0 Severe Errors; Elapsed Time=00hr 01min 37.63sec
