Program Version,EnergyPlus, Version 22.2.0-c249759bad, YMD=2023.09.01 19:35,
   ************* Beginning Zone Sizing Calculations
   ** Warning ** ProcessScheduleInput: Schedule:Constant="ALWAYS ON DISCRETE", Schedule Type Limits Name="ONOFF" not found -- will not be validated
   ** Warning ** Foundation:Kiva="KIVA FOUNDATION", no Interior Horizontal Insulation Material Name defined
   **   ~~~   ** Interior Horizontal Insulation Depth will not be used.
   ** Warning ** CheckUsedConstructions: There are 15 nominally unused constructions in input.
   **   ~~~   ** Each Unused construction is shown.
   ************* Construction=INTERIOR FLOOR
   ************* Construction=INTERIOR WINDOW
   ************* Construction=EXTERIOR DOOR
   ************* Construction=INTERIOR DOOR
   ************* Construction=GABLE CONSTRUCTION
   ************* Construction=CRAWL_FLOOR
   ************* Construction=INSULATED PIPE
   ************* Construction=PLAIN PIPE
   ************* Construction=TDD PIPE
   ************* Construction=TDD DOME
   ************* Construction=TDD DIFFUSER
   ************* Construction=CRAWL WALL
   ************* Construction=CEILING-FLOOR-LAYER
   ************* Construction=SLAB CONSTRUCTION W FULL R10 INSULATION
   ************* Construction=SLAB CONSTRUCTION W FULL R5 INSULATION
   ** Warning ** GetDXCoils: Coil:Heating:DX:SingleSpeed="DX_HEATING_COIL" curve values
   **   ~~~   ** ... Defrost Energy Input Ratio Function of Temperature Curve Name = DEFROSTEIR output is not equal to 1.0 (+ or - 10%) at rated conditions.
   **   ~~~   ** ... Curve output at rated conditions = 0.152
   ************* Beginning System Sizing Calculations
   ************* Beginning Plant Sizing Calculations
   ** Warning ** Coil:WaterHeating:AirToWaterHeatPump:Wrapped "HEAT PUMP WATER HEATER EVAPORATOR": Rated air volume flow rate per watt of rated total water heating capacity is out of range
   **   ~~~   ** Min Rated Vol Flow Per Watt=[4.027E-005], Rated Vol Flow Per Watt=[1.510E-004], Max Rated Vol Flow Per Watt=[8.056E-005]. See Input-Output Reference Manual for valid range.
   ************* SizeFan: : Potential issue with equipment sizing for Fan:OnOff HEAT PUMP WATER HEATER FAN
   **   ~~~   ** User-Specified Maximum Flow Rate [m3/s] = 0.22653
   **   ~~~   ** differs from Design Size Maximum Flow Rate [m3/s] = 7.55250E-002
   **   ~~~   ** This may, or may not, indicate mismatched component sizes.
   **   ~~~   ** Verify that the value entered is intended and is consistent with other components.
   ** Warning ** Water heater = WATER HEATER TANK:  Recovery Efficiency and Energy Factor could not be calculated during the test for standard ratings
   **   ~~~   ** Setpoint was never recovered and/or heater never turned on
   ** Warning ** Check input. Pump nominal power or motor efficiency is set to 0, for pump=MAINS PRESSURE
   ** Warning ** Output:Meter: invalid Key Name="ELECTRIC_RANGE:INTERIOREQUIPMENT:ELECTRICITY" - not found.
   ** Warning ** Output:Meter: invalid Key Name="ELECTRIC_DRYER:INTERIOREQUIPMENT:ELECTRICITY" - not found.
   ** Warning ** Output:Meter: invalid Key Name="HEATRECOVERY:ELECTRICITY" - not found.
   ** Warning ** Output:Meter: invalid Key Name="HEATING:NATURALGAS" - not found.
   ** Warning ** Output:Meter: invalid Key Name="WATERSYSTEMS:NATURALGAS" - not found.
   ** Warning ** Output:Meter: invalid Key Name="PROPANE:FACILITY" - not found.
   ** Warning ** Output:Meter: invalid Key Name="HEATING:PROPANE" - not found.
   ************* Testing Individual Branch Integrity
   ************* All Branches passed integrity testing
   ************* Testing Individual Supply Air Path Integrity
   ************* All Supply Air Paths passed integrity testing
   ************* Testing Individual Return Air Path Integrity
   ************* All Return Air Paths passed integrity testing
   ************* No node connection errors were found.
   ************* Beginning Simulation
   ** Warning ** AirflowNetwork::Solver::validate_distribution: Heat pump water heater is simulated along with an AirflowNetwork but is not included in the AirflowNetwork.
   ** Warning ** CalcEquipmentFlowRates: "TOTAL HOT WATER LOAD" - Target water temperature is greater than the hot water temperature by (2.56 C)
   **   ~~~   **  Environment=EXTREME_WINTER, at Simulation time=12/22 06:00 - 06:15
   **   ~~~   ** ...target water temperature     = 53.33 C
   **   ~~~   ** ...hot water temperature        = 50.78 C
   **   ~~~   ** ...Target water temperature should be less than or equal to the hot water temperature. Verify temperature setpoints and schedules.
   ** Warning ** SimHVAC: Maximum iterations (20) exceeded for all HVAC loops, at ANNUAL, 01/15 21:15 - 21:22
   **   ~~~   ** The solution for one or more of the Air Loop HVAC systems did not appear to converge
   **   ~~~   ** Air System Named = CENTRAL SYSTEM did not converge for mass flow rate
   **   ~~~   ** Check values should be zero. Most Recent values listed first.
   **   ~~~   ** Demand-to-Supply interface mass flow rate check value iteration history trace: 5.149446E-002,5.149446E-002,5.149446E-002,5.149446E-002,5.149446E-002,5.149446E-002,5.149446E-002,5.149446E-002,5.149446E-002,5.149446E-002,
   **   ~~~   ** Supply-to-demand interface deck 1 mass flow rate check value iteration history trace: 5.149446E-002,5.149446E-002,5.149446E-002,5.149446E-002,5.149446E-002,5.149446E-002,5.149446E-002,5.149446E-002,5.149446E-002,5.149446E-002,
   **   ~~~   ** Air System Named = CENTRAL SYSTEM did not converge for energy
   **   ~~~   ** Check values should be zero. Most Recent values listed first.
   **   ~~~   ** Demand-to-Supply interface energy check value iteration history trace: 1019.424725,1019.424725,1019.424725,1019.424725,1019.424724,1019.424724,1019.424724,1019.424724,1019.424724,1019.424724,
   **   ~~~   ** Supply-to-demand interface deck 1 energy check value iteration history trace: 1854.571528,1854.571528,1854.571528,1854.571528,1854.571528,1854.571528,1854.571528,1854.571528,1854.571528,1854.571528,
   ** Warning ** SimHVAC: Maximum iterations (20) exceeded for all HVAC loops, at ANNUAL, 01/29 20:23 - 20:30
   **   ~~~   ** The solution for one or more of the Air Loop HVAC systems did not appear to converge
   **   ~~~   ** Air System Named = CENTRAL SYSTEM did not converge for mass flow rate
   **   ~~~   ** Check values should be zero. Most Recent values listed first.
   **   ~~~   ** Demand-to-Supply interface mass flow rate check value iteration history trace: 7.021146E-002,7.021146E-002,7.021146E-002,7.021146E-002,7.021146E-002,7.021146E-002,7.021146E-002,7.021146E-002,7.021146E-002,7.021146E-002,
   **   ~~~   ** Supply-to-demand interface deck 1 mass flow rate check value iteration history trace: 7.021146E-002,7.021146E-002,7.021146E-002,7.021146E-002,7.021146E-002,7.021146E-002,7.021146E-002,7.021146E-002,7.021146E-002,7.021146E-002,
   **   ~~~   ** Air System Named = CENTRAL SYSTEM did not converge for energy
   **   ~~~   ** Check values should be zero. Most Recent values listed first.
   **   ~~~   ** Demand-to-Supply interface energy check value iteration history trace: 1381.688628,1381.688628,1381.688628,1381.688628,1381.688628,1381.688628,1381.688628,1381.688628,1381.688627,1381.688627,
   **   ~~~   ** Supply-to-demand interface deck 1 energy check value iteration history trace: 2364.988963,2364.988963,2364.988963,2364.988963,2364.988963,2364.988962,2364.988962,2364.988962,2364.988962,2364.988962,
   ** Warning ** SimHVAC: Maximum iterations (20) exceeded for all HVAC loops, at ANNUAL, 02/18 19:30 - 19:38
   **   ~~~   ** The solution for one or more of the Air Loop HVAC systems did not appear to converge
   **   ~~~   ** Air System Named = CENTRAL SYSTEM did not converge for mass flow rate
   **   ~~~   ** Check values should be zero. Most Recent values listed first.
   **   ~~~   ** Demand-to-Supply interface mass flow rate check value iteration history trace: 6.380297E-002,6.380297E-002,6.380297E-002,6.380297E-002,6.380297E-002,6.380297E-002,6.380297E-002,6.380297E-002,6.380297E-002,6.380297E-002,
   **   ~~~   ** Supply-to-demand interface deck 1 mass flow rate check value iteration history trace: 6.380297E-002,6.380297E-002,6.380297E-002,6.380297E-002,6.380297E-002,6.380297E-002,6.380297E-002,6.380297E-002,6.380297E-002,6.380297E-002,
   **   ~~~   ** Air System Named = CENTRAL SYSTEM did not converge for energy
   **   ~~~   ** Check values should be zero. Most Recent values listed first.
   **   ~~~   ** Demand-to-Supply interface energy check value iteration history trace: 1252.794981,1252.794981,1252.794981,1252.794981,1252.794981,1252.794981,1252.794981,1252.794981,1252.794981,1252.794980,
   **   ~~~   ** Supply-to-demand interface deck 1 energy check value iteration history trace: 2193.635407,2193.635407,2193.635407,2193.635407,2193.635407,2193.635407,2193.635407,2193.635407,2193.635407,2193.635407,
   ** Warning ** SimHVAC: Maximum iterations (20) exceeded for all HVAC loops, at ANNUAL, 02/19 10:15 - 10:22
   **   ~~~   ** The solution for one or more of the Air Loop HVAC systems did not appear to converge
   **   ~~~   ** Air System Named = CENTRAL SYSTEM did not converge for mass flow rate
   **   ~~~   ** Check values should be zero. Most Recent values listed first.
   **   ~~~   ** Demand-to-Supply interface mass flow rate check value iteration history trace: 7.219106E-002,7.219106E-002,7.219106E-002,7.219106E-002,7.219106E-002,7.219106E-002,7.219106E-002,7.219106E-002,7.219106E-002,7.219106E-002,
   **   ~~~   ** Supply-to-demand interface deck 1 mass flow rate check value iteration history trace: 7.219106E-002,7.219106E-002,7.219106E-002,7.219106E-002,7.219106E-002,7.219106E-002,7.219106E-002,7.219106E-002,7.219106E-002,7.219106E-002,
   **   ~~~   ** Air System Named = CENTRAL SYSTEM did not converge for energy
   **   ~~~   ** Check values should be zero. Most Recent values listed first.
   **   ~~~   ** Demand-to-Supply interface energy check value iteration history trace: 1430.539529,1430.539529,1430.539529,1430.539529,1430.539529,1430.539529,1430.539529,1430.539529,1430.539529,1430.539529,
   **   ~~~   ** Supply-to-demand interface deck 1 energy check value iteration history trace: 2446.855139,2446.855139,2446.855139,2446.855138,2446.855138,2446.855138,2446.855138,2446.855138,2446.855138,2446.855138,
   ** Warning ** SimHVAC: Maximum iterations (20) exceeded for all HVAC loops, at ANNUAL, 03/06 18:15 - 18:30
   **   ~~~   ** The solution for one or more of the Air Loop HVAC systems did not appear to converge
   **   ~~~   ** Air System Named = CENTRAL SYSTEM did not converge for mass flow rate
   **   ~~~   ** Check values should be zero. Most Recent values listed first.
   **   ~~~   ** Demand-to-Supply interface mass flow rate check value iteration history trace: 5.511585E-002,5.511585E-002,5.511585E-002,5.511585E-002,5.511585E-002,5.511585E-002,5.511585E-002,5.511585E-002,5.511585E-002,5.511585E-002,
   **   ~~~   ** Supply-to-demand interface deck 1 mass flow rate check value iteration history trace: 5.511585E-002,5.511585E-002,5.511585E-002,5.511585E-002,5.511585E-002,5.511585E-002,5.511585E-002,5.511585E-002,5.511585E-002,5.511585E-002,
   **   ~~~   ** Air System Named = CENTRAL SYSTEM did not converge for energy
   **   ~~~   ** Check values should be zero. Most Recent values listed first.
   **   ~~~   ** Demand-to-Supply interface energy check value iteration history trace: 1072.048293,1072.048293,1072.048293,1072.048293,1072.048293,1072.048293,1072.048293,1072.048293,1072.048293,1072.048293,
   **   ~~~   ** Supply-to-demand interface deck 1 energy check value iteration history trace: 1918.345667,1918.345667,1918.345667,1918.345667,1918.345667,1918.345667,1918.345666,1918.345666,1918.345666,1918.345666,
   ** Warning ** SimHVAC: Maximum iterations (20) exceeded for all HVAC loops, at ANNUAL, 03/15 08:45 - 09:00
   **   ~~~   ** The solution for one or more of the Air Loop HVAC systems did not appear to converge
   **   ~~~   ** Air System Named = CENTRAL SYSTEM did not converge for mass flow rate
   **   ~~~   ** Check values should be zero. Most Recent values listed first.
   **   ~~~   ** Demand-to-Supply interface mass flow rate check value iteration history trace: 2.950410E-002,2.950410E-002,2.950410E-002,2.950410E-002,2.950410E-002,2.950410E-002,2.950410E-002,2.950410E-002,2.950410E-002,2.950410E-002,
   **   ~~~   ** Supply-to-demand interface deck 1 mass flow rate check value iteration history trace: 2.950410E-002,2.950410E-002,2.950410E-002,2.950410E-002,2.950410E-002,2.950410E-002,2.950410E-002,2.950410E-002,2.950410E-002,2.950410E-002,
   **   ~~~   ** Air System Named = CENTRAL SYSTEM did not converge for energy
   **   ~~~   ** Check values should be zero. Most Recent values listed first.
   **   ~~~   ** Demand-to-Supply interface energy check value iteration history trace: 584.676717,584.676717,584.676717,584.676716,584.676716,584.676716,584.676716,584.676716,584.676716,584.676716,
   **   ~~~   ** Supply-to-demand interface deck 1 energy check value iteration history trace: 1014.815268,1014.815268,1014.815268,1014.815268,1014.815268,1014.815268,1014.815268,1014.815268,1014.815268,1014.815267,
   ** Warning ** SimHVAC: Maximum iterations (20) exceeded for all HVAC loops, at ANNUAL, 04/02 09:08 - 09:15
   **   ~~~   ** The solution for one or more of the Air Loop HVAC systems did not appear to converge
   **   ~~~   ** Air System Named = CENTRAL SYSTEM did not converge for mass flow rate
   **   ~~~   ** Check values should be zero. Most Recent values listed first.
   **   ~~~   ** Demand-to-Supply interface mass flow rate check value iteration history trace: 5.994412E-002,5.994412E-002,5.994412E-002,5.994412E-002,5.994412E-002,5.994412E-002,5.994412E-002,5.994412E-002,5.994412E-002,5.994412E-002,
   **   ~~~   ** Supply-to-demand interface deck 1 mass flow rate check value iteration history trace: 5.994412E-002,5.994412E-002,5.994412E-002,5.994412E-002,5.994412E-002,5.994412E-002,5.994412E-002,5.994412E-002,5.994412E-002,5.994412E-002,
   **   ~~~   ** Air System Named = CENTRAL SYSTEM did not converge for energy
   **   ~~~   ** Check values should be zero. Most Recent values listed first.
   **   ~~~   ** Demand-to-Supply interface energy check value iteration history trace: 1181.281275,1181.281275,1181.281275,1181.281275,1181.281275,1181.281275,1181.281275,1181.281275,1181.281275,1181.281275,
   **   ~~~   ** Supply-to-demand interface deck 1 energy check value iteration history trace: 2126.126883,2126.126883,2126.126883,2126.126883,2126.126883,2126.126883,2126.126883,2126.126883,2126.126883,2126.126883,
   ** Warning ** SimHVAC: Maximum iterations (20) exceeded for all HVAC loops, at ANNUAL, 04/09 10:30 - 10:45
   **   ~~~   ** The solution for one or more of the Air Loop HVAC systems did not appear to converge
   **   ~~~   ** Air System Named = CENTRAL SYSTEM did not converge for mass flow rate
   **   ~~~   ** Check values should be zero. Most Recent values listed first.
   **   ~~~   ** Demand-to-Supply interface mass flow rate check value iteration history trace: 6.686103E-002,6.686103E-002,6.686103E-002,6.686103E-002,6.686103E-002,6.686103E-002,6.686103E-002,6.686103E-002,6.686103E-002,6.686103E-002,
   **   ~~~   ** Supply-to-demand interface deck 1 mass flow rate check value iteration history trace: 6.686103E-002,6.686103E-002,6.686103E-002,6.686103E-002,6.686103E-002,6.686103E-002,6.686103E-002,6.686103E-002,6.686103E-002,6.686103E-002,
   **   ~~~   ** Air System Named = CENTRAL SYSTEM did not converge for energy
   **   ~~~   ** Check values should be zero. Most Recent values listed first.
   **   ~~~   ** Demand-to-Supply interface energy check value iteration history trace: 1313.966247,1313.966247,1313.966247,1313.966247,1313.966247,1313.966247,1313.966247,1313.966247,1313.966247,1313.966247,
   **   ~~~   ** Supply-to-demand interface deck 1 energy check value iteration history trace: 2300.359194,2300.359194,2300.359194,2300.359193,2300.359193,2300.359193,2300.359193,2300.359193,2300.359193,2300.359193,
   ** Warning ** SimHVAC: Maximum iterations (20) exceeded for all HVAC loops, at ANNUAL, 04/09 12:30 - 12:38
   **   ~~~   ** The solution for one or more of the Air Loop HVAC systems did not appear to converge
   **   ~~~   ** Air System Named = CENTRAL SYSTEM did not converge for mass flow rate
   **   ~~~   ** Check values should be zero. Most Recent values listed first.
   **   ~~~   ** Demand-to-Supply interface mass flow rate check value iteration history trace: 5.402546E-002,5.402546E-002,5.402546E-002,5.402546E-002,5.402546E-002,5.402546E-002,5.402546E-002,5.402546E-002,5.402546E-002,5.402546E-002,
   **   ~~~   ** Supply-to-demand interface deck 1 mass flow rate check value iteration history trace: 5.402546E-002,5.402546E-002,5.402546E-002,5.402546E-002,5.402546E-002,5.402546E-002,5.402546E-002,5.402546E-002,5.402546E-002,5.402546E-002,
   **   ~~~   ** Air System Named = CENTRAL SYSTEM did not converge for energy
   **   ~~~   ** Check values should be zero. Most Recent values listed first.
   **   ~~~   ** Demand-to-Supply interface energy check value iteration history trace: 1058.859717,1058.859717,1058.859717,1058.859717,1058.859716,1058.859716,1058.859716,1058.859716,1058.859716,1058.859716,
   **   ~~~   ** Supply-to-demand interface deck 1 energy check value iteration history trace: 1895.198053,1895.198052,1895.198052,1895.198052,1895.198052,1895.198052,1895.198052,1895.198052,1895.198052,1895.198052,
   ** Warning ** SimHVAC: Maximum iterations (20) exceeded for all HVAC loops, at ANNUAL, 05/20 09:30 - 09:45
   **   ~~~   ** The solution for one or more of the Air Loop HVAC systems did not appear to converge
   **   ~~~   ** Air System Named = CENTRAL SYSTEM did not converge for mass flow rate
   **   ~~~   ** Check values should be zero. Most Recent values listed first.
   **   ~~~   ** Demand-to-Supply interface mass flow rate check value iteration history trace: 5.806895E-002,5.806895E-002,5.806895E-002,5.806895E-002,5.806895E-002,5.806895E-002,5.806895E-002,5.806895E-002,5.806895E-002,5.806895E-002,
   **   ~~~   ** Supply-to-demand interface deck 1 mass flow rate check value iteration history trace: 5.806895E-002,5.806895E-002,5.806895E-002,5.806895E-002,5.806895E-002,5.806895E-002,5.806895E-002,5.806895E-002,5.806895E-002,5.806895E-002,
   **   ~~~   ** Air System Named = CENTRAL SYSTEM did not converge for energy
   **   ~~~   ** Check values should be zero. Most Recent values listed first.
   **   ~~~   ** Demand-to-Supply interface energy check value iteration history trace: 1375.354159,1375.354159,1375.354159,1375.354159,1375.354160,1375.354160,1375.354160,1375.354160,1375.354160,1375.354160,
   **   ~~~   ** Supply-to-demand interface deck 1 energy check value iteration history trace: 694.604211,694.604211,694.604211,694.604211,694.604211,694.604211,694.604212,694.604212,694.604212,694.604212,
   ** Warning ** SimHVAC: Maximum iterations (20) exceeded for all HVAC loops, at ANNUAL, 05/28 07:45 - 08:00
   **   ~~~   ** The solution for one or more of the Air Loop HVAC systems did not appear to converge
   **   ~~~   ** Air System Named = CENTRAL SYSTEM did not converge for mass flow rate
   **   ~~~   ** Check values should be zero. Most Recent values listed first.
   **   ~~~   ** Demand-to-Supply interface mass flow rate check value iteration history trace: 4.904195E-002,4.904195E-002,4.904195E-002,4.904195E-002,4.904195E-002,4.904195E-002,4.904195E-002,4.904195E-002,4.904195E-002,4.904195E-002,
   **   ~~~   ** Supply-to-demand interface deck 1 mass flow rate check value iteration history trace: 4.904195E-002,4.904195E-002,4.904195E-002,4.904195E-002,4.904195E-002,4.904195E-002,4.904195E-002,4.904195E-002,4.904195E-002,4.904195E-002,
   **   ~~~   ** Air System Named = CENTRAL SYSTEM did not converge for energy
   **   ~~~   ** Check values should be zero. Most Recent values listed first.
   **   ~~~   ** Demand-to-Supply interface energy check value iteration history trace: 971.843066,971.843066,971.843066,971.843066,971.843066,971.843066,971.843066,971.843066,971.843066,971.843066,
   **   ~~~   ** Supply-to-demand interface deck 1 energy check value iteration history trace: 1722.232303,1722.232303,1722.232303,1722.232303,1722.232303,1722.232303,1722.232303,1722.232303,1722.232303,1722.232303,
   ** Warning ** SimHVAC: Maximum iterations (20) exceeded for all HVAC loops, at ANNUAL, 10/21 10:00 - 10:05
   **   ~~~   ** The solution for one or more of the Air Loop HVAC systems did not appear to converge
   **   ~~~   ** Air System Named = CENTRAL SYSTEM did not converge for mass flow rate
   **   ~~~   ** Check values should be zero. Most Recent values listed first.
   **   ~~~   ** Demand-to-Supply interface mass flow rate check value iteration history trace: 6.276089E-002,6.276089E-002,6.276089E-002,6.276089E-002,6.276089E-002,6.276089E-002,6.276089E-002,6.276089E-002,6.276089E-002,6.276089E-002,
   **   ~~~   ** Supply-to-demand interface deck 1 mass flow rate check value iteration history trace: 6.276089E-002,6.276089E-002,6.276089E-002,6.276089E-002,6.276089E-002,6.276089E-002,6.276089E-002,6.276089E-002,6.276089E-002,6.276089E-002,
   **   ~~~   ** Air System Named = CENTRAL SYSTEM did not converge for energy
   **   ~~~   ** Check values should be zero. Most Recent values listed first.
   **   ~~~   ** Demand-to-Supply interface energy check value iteration history trace: 1243.694404,1243.694404,1243.694404,1243.694404,1243.694404,1243.694404,1243.694404,1243.694404,1243.694404,1243.694404,
   **   ~~~   ** Supply-to-demand interface deck 1 energy check value iteration history trace: 2147.104362,2147.104362,2147.104362,2147.104361,2147.104361,2147.104361,2147.104361,2147.104361,2147.104361,2147.104361,
   ** Warning ** SimHVAC: Maximum iterations (20) exceeded for all HVAC loops, at ANNUAL, 11/12 21:15 - 21:22
   **   ~~~   ** The solution for one or more of the Air Loop HVAC systems did not appear to converge
   **   ~~~   ** Air System Named = CENTRAL SYSTEM did not converge for mass flow rate
   **   ~~~   ** Check values should be zero. Most Recent values listed first.
   **   ~~~   ** Demand-to-Supply interface mass flow rate check value iteration history trace: 6.553387E-002,6.553387E-002,6.553387E-002,6.553387E-002,6.553387E-002,6.553387E-002,6.553387E-002,6.553387E-002,6.553387E-002,6.553387E-002,
   **   ~~~   ** Supply-to-demand interface deck 1 mass flow rate check value iteration history trace: 6.553387E-002,6.553387E-002,6.553387E-002,6.553387E-002,6.553387E-002,6.553387E-002,6.553387E-002,6.553387E-002,6.553387E-002,6.553387E-002,
   **   ~~~   ** Air System Named = CENTRAL SYSTEM did not converge for energy
   **   ~~~   ** Check values should be zero. Most Recent values listed first.
   **   ~~~   ** Demand-to-Supply interface energy check value iteration history trace: 1298.993248,1298.993248,1298.993248,1298.993248,1298.993248,1298.993248,1298.993248,1298.993248,1298.993248,1298.993248,
   **   ~~~   ** Supply-to-demand interface deck 1 energy check value iteration history trace: 2210.095631,2210.095631,2210.095631,2210.095631,2210.095630,2210.095630,2210.095630,2210.095630,2210.095630,2210.095630,
   ** Warning ** SimHVAC: Maximum iterations (20) exceeded for all HVAC loops, at ANNUAL, 11/25 09:45 - 09:48
   **   ~~~   ** The solution for one or more of the Air Loop HVAC systems did not appear to converge
   **   ~~~   ** Air System Named = CENTRAL SYSTEM did not converge for mass flow rate
   **   ~~~   ** Check values should be zero. Most Recent values listed first.
   **   ~~~   ** Demand-to-Supply interface mass flow rate check value iteration history trace: 6.497346E-002,6.497346E-002,6.497346E-002,6.497346E-002,6.497346E-002,6.497346E-002,6.497346E-002,6.497346E-002,6.497346E-002,6.497346E-002,
   **   ~~~   ** Supply-to-demand interface deck 1 mass flow rate check value iteration history trace: 6.497346E-002,6.497346E-002,6.497346E-002,6.497346E-002,6.497346E-002,6.497346E-002,6.497346E-002,6.497346E-002,6.497346E-002,6.497346E-002,
   **   ~~~   ** Air System Named = CENTRAL SYSTEM did not converge for energy
   **   ~~~   ** Check values should be zero. Most Recent values listed first.
   **   ~~~   ** Demand-to-Supply interface energy check value iteration history trace: 1287.551847,1287.551847,1287.551847,1287.551847,1287.551847,1287.551847,1287.551847,1287.551847,1287.551847,1287.551847,
   **   ~~~   ** Supply-to-demand interface deck 1 energy check value iteration history trace: 2273.379879,2273.379879,2273.379879,2273.379879,2273.379879,2273.379879,2273.379879,2273.379879,2273.379879,2273.379878,
   ************* Simulation Error Summary *************
   ** Warning ** The following Report Variables were requested but not generated -- check.rdd file
   **   ~~~   ** Either the IDF did not contain these elements, the variable name is misspelled,
   **   ~~~   ** or the requested variable is an advanced output which requires Output : Diagnostics, DisplayAdvancedReportVariables;
   ************* Key=*, VarName=BASEBOARD TOTAL HEATING ENERGY, Frequency=
   ************* Key=*, VarName=WATER HEATER NATURALGAS ENERGY, Frequency=
   ************* Key=*, VarName=COOLING COIL TOTAL HEATING ENERGY, Frequency=
   ************* There are 34 unused schedules in input.
   ************* There are 388 unused week schedules in input.
   ************* There are 396 unused day schedules in input.
   ************* Use Output:Diagnostics,DisplayUnusedSchedules; to see them.
   *************
   ************* ===== Recurring Error Summary =====
   ************* The following recurring error messages occurred.
   *************
   *************  ** Warning ** "TOTAL HOT WATER LOAD" - Target water temperature should be less than or equal to the hot water temperature error continues...
   *************  **   ~~~   **   This error occurred 117693 total times;
   *************  **   ~~~   **   during Warmup 0 times;
   *************  **   ~~~   **   during Sizing 0 times.
   *************  **   ~~~   **   Max=9.193928  Min=2.733089E-004
   *************
   *************  ** Warning ** SimHVAC: Exceeding Maximum iterations for all HVAC loops, during ANNUAL continues
   *************  **   ~~~   **   This error occurred 3 total times;
   *************  **   ~~~   **   during Warmup 0 times;
   *************  **   ~~~   **   during Sizing 0 times.
   *************
   *************
   ************* ===== Final Error Summary =====
   ************* The following error categories occurred.  Consider correcting or noting.
   ************* Nominally Unused Constructions
   ************* ..The nominally unused constructions warning is provided to alert you to potential conditions that can cause
   ************* ..extra time during simulation. Each construction is calculated by the algorithm indicated in the HeatBalanceAlgorithm
   ************* ..object. You may remove the constructions indicated (when you use the DisplayExtraWarnings option).
   *************
   ************* EnergyPlus Warmup Error Summary. During Warmup: 1 Warning; 0 Severe Errors.
   ************* EnergyPlus Sizing Error Summary. During Sizing: 4 Warning; 0 Severe Errors.
   ************* EnergyPlus Completed Successfully-- 117727 Warning; 0 Severe Errors; Elapsed Time=00hr 01min 24.88sec
