Program Version,EnergyPlus, Version 22.2.0-c249759bad, YMD=2023.09.01 19:56,
   ************* Beginning Zone Sizing Calculations
   ** Warning ** ProcessScheduleInput: Schedule:Constant="ALWAYS ON DISCRETE", Schedule Type Limits Name="ONOFF" not found -- will not be validated
   ** Warning ** Foundation:Kiva="KIVA FOUNDATION", no Interior Horizontal Insulation Material Name defined
   **   ~~~   ** Interior Horizontal Insulation Depth will not be used.
   ** Warning ** CheckUsedConstructions: There are 15 nominally unused constructions in input.
   **   ~~~   ** Each Unused construction is shown.
   ************* Construction=INTERIOR FLOOR
   ************* Construction=INTERIOR WINDOW
   ************* Construction=EXTERIOR DOOR
   ************* Construction=INTERIOR DOOR
   ************* Construction=GABLE CONSTRUCTION
   ************* Construction=CRAWL_FLOOR
   ************* Construction=INSULATED PIPE
   ************* Construction=PLAIN PIPE
   ************* Construction=TDD PIPE
   ************* Construction=TDD DOME
   ************* Construction=TDD DIFFUSER
   ************* Construction=CRAWL WALL
   ************* Construction=CEILING-FLOOR-LAYER
   ************* Construction=SLAB CONSTRUCTION W FULL R10 INSULATION
   ************* Construction=SLAB CONSTRUCTION W FULL R5 INSULATION
   ** Warning ** GetDXCoils: Coil:Heating:DX:SingleSpeed="DX_HEATING_COIL" curve values
   **   ~~~   ** ... Defrost Energy Input Ratio Function of Temperature Curve Name = DEFROSTEIR output is not equal to 1.0 (+ or - 10%) at rated conditions.
   **   ~~~   ** ... Curve output at rated conditions = 0.152
   ************* Beginning System Sizing Calculations
   ************* Beginning Plant Sizing Calculations
   ** Warning ** SizeDXCoil Coil:Cooling:DX:SingleSpeed DX_COOLING_COIL
   **   ~~~   ** ...Gross Rated Total Cooling Capacity [W] will be limited by the maximum rated volume flow per rated total capacity ratio.
   **   ~~~   ** ...DX coil volume flow rate ( m3/s ) = 0.561823
   **   ~~~   ** ...Requested capacity ( W ) = 7987.332
   **   ~~~   ** ...Requested flow/capacity ratio ( m3/s/W ) = 7.033E-005
   **   ~~~   ** ...Maximum flow/capacity ratio ( m3/s/W ) = 6.041E-005
   **   ~~~   ** ...Adjusted capacity ( W ) = 9300.172
   ** Warning ** Coil:WaterHeating:AirToWaterHeatPump:Wrapped "HEAT PUMP WATER HEATER EVAPORATOR": Rated air volume flow rate per watt of rated total water heating capacity is out of range
   **   ~~~   ** Min Rated Vol Flow Per Watt=[4.027E-005], Rated Vol Flow Per Watt=[1.510E-004], Max Rated Vol Flow Per Watt=[8.056E-005]. See Input-Output Reference Manual for valid range.
   ************* SizeFan: : Potential issue with equipment sizing for Fan:OnOff HEAT PUMP WATER HEATER FAN
   **   ~~~   ** User-Specified Maximum Flow Rate [m3/s] = 0.22653
   **   ~~~   ** differs from Design Size Maximum Flow Rate [m3/s] = 7.55250E-002
   **   ~~~   ** This may, or may not, indicate mismatched component sizes.
   **   ~~~   ** Verify that the value entered is intended and is consistent with other components.
   ** Warning ** Water heater = WATER HEATER TANK:  Recovery Efficiency and Energy Factor could not be calculated during the test for standard ratings
   **   ~~~   ** Setpoint was never recovered and/or heater never turned on
   ** Warning ** Check input. Pump nominal power or motor efficiency is set to 0, for pump=MAINS PRESSURE
   ** Warning ** Output:Meter: invalid Key Name="ELECTRIC_RANGE:INTERIOREQUIPMENT:ELECTRICITY" - not found.
   ** Warning ** Output:Meter: invalid Key Name="ELECTRIC_DRYER:INTERIOREQUIPMENT:ELECTRICITY" - not found.
   ** Warning ** Output:Meter: invalid Key Name="HEATRECOVERY:ELECTRICITY" - not found.
   ** Warning ** Output:Meter: invalid Key Name="HEATING:NATURALGAS" - not found.
   ** Warning ** Output:Meter: invalid Key Name="WATERSYSTEMS:NATURALGAS" - not found.
   ** Warning ** Output:Meter: invalid Key Name="PROPANE:FACILITY" - not found.
   ** Warning ** Output:Meter: invalid Key Name="HEATING:PROPANE" - not found.
   ************* Testing Individual Branch Integrity
   ************* All Branches passed integrity testing
   ************* Testing Individual Supply Air Path Integrity
   ************* All Supply Air Paths passed integrity testing
   ************* Testing Individual Return Air Path Integrity
   ************* All Return Air Paths passed integrity testing
   ************* No node connection errors were found.
   ************* Beginning Simulation
   ** Warning ** AirflowNetwork::Solver::validate_distribution: Heat pump water heater is simulated along with an AirflowNetwork but is not included in the AirflowNetwork.
   ** Warning ** CalcEquipmentFlowRates: "TOTAL HOT WATER LOAD" - Target water temperature is greater than the hot water temperature by (4.22 C)
   **   ~~~   **  Environment=EXTREME_WINTER, at Simulation time=12/22 07:00 - 07:15
   **   ~~~   ** ...target water temperature     = 53.33 C
   **   ~~~   ** ...hot water temperature        = 49.11 C
   **   ~~~   ** ...Target water temperature should be less than or equal to the hot water temperature. Verify temperature setpoints and schedules.
   ** Warning ** SimHVAC: Maximum iterations (20) exceeded for all HVAC loops, at EXTREME_WINTER, 12/23 20:45 - 20:52
   **   ~~~   ** The solution for one or more of the Air Loop HVAC systems did not appear to converge
   **   ~~~   ** Air System Named = CENTRAL SYSTEM did not converge for mass flow rate
   **   ~~~   ** Check values should be zero. Most Recent values listed first.
   **   ~~~   ** Demand-to-Supply interface mass flow rate check value iteration history trace: 5.922588E-002,5.922588E-002,5.922588E-002,5.922588E-002,5.922588E-002,5.922588E-002,5.922588E-002,5.922588E-002,5.922588E-002,5.922588E-002,
   **   ~~~   ** Supply-to-demand interface deck 1 mass flow rate check value iteration history trace: 5.922588E-002,5.922588E-002,5.922588E-002,5.922588E-002,5.922588E-002,5.922588E-002,5.922588E-002,5.922588E-002,5.922588E-002,5.922588E-002,
   **   ~~~   ** Air System Named = CENTRAL SYSTEM did not converge for energy
   **   ~~~   ** Check values should be zero. Most Recent values listed first.
   **   ~~~   ** Demand-to-Supply interface energy check value iteration history trace: 1172.945613,1172.945613,1172.945613,1172.945613,1172.945613,1172.945613,1172.945613,1172.945613,1172.945613,1172.945613,
   **   ~~~   ** Supply-to-demand interface deck 1 energy check value iteration history trace: 2058.319253,2058.319253,2058.319253,2058.319253,2058.319253,2058.319253,2058.319253,2058.319253,2058.319253,2058.319252,
   ** Warning ** SimHVAC: Maximum iterations (20) exceeded for all HVAC loops, at EXTREME_WINTER, 12/23 21:45 - 22:00
   **   ~~~   ** The solution for one or more of the Air Loop HVAC systems did not appear to converge
   **   ~~~   ** Air System Named = CENTRAL SYSTEM did not converge for mass flow rate
   **   ~~~   ** Check values should be zero. Most Recent values listed first.
   **   ~~~   ** Demand-to-Supply interface mass flow rate check value iteration history trace: 5.381320E-002,5.381320E-002,5.381320E-002,5.381320E-002,5.381320E-002,5.381320E-002,5.381320E-002,5.381320E-002,5.381320E-002,5.381320E-002,
   **   ~~~   ** Supply-to-demand interface deck 1 mass flow rate check value iteration history trace: 5.381320E-002,5.381320E-002,5.381320E-002,5.381320E-002,5.381320E-002,5.381320E-002,5.381320E-002,5.381320E-002,5.381320E-002,5.381320E-002,
   **   ~~~   ** Air System Named = CENTRAL SYSTEM did not converge for energy
   **   ~~~   ** Check values should be zero. Most Recent values listed first.
   **   ~~~   ** Demand-to-Supply interface energy check value iteration history trace: 1064.422610,1064.422610,1064.422610,1064.422610,1064.422610,1064.422610,1064.422610,1064.422610,1064.422610,1064.422610,
   **   ~~~   ** Supply-to-demand interface deck 1 energy check value iteration history trace: 1869.045456,1869.045456,1869.045456,1869.045456,1869.045456,1869.045456,1869.045456,1869.045456,1869.045455,1869.045455,
   ** Warning ** SimHVAC: Maximum iterations (20) exceeded for all HVAC loops, at EXTREME_WINTER, 12/27 22:45 - 23:00
   **   ~~~   ** The solution for one or more of the Air Loop HVAC systems did not appear to converge
   **   ~~~   ** Air System Named = CENTRAL SYSTEM did not converge for mass flow rate
   **   ~~~   ** Check values should be zero. Most Recent values listed first.
   **   ~~~   ** Demand-to-Supply interface mass flow rate check value iteration history trace: 8.133333E-002,8.133333E-002,8.133333E-002,8.133333E-002,8.133333E-002,8.133333E-002,8.133333E-002,8.133333E-002,8.133333E-002,8.133333E-002,
   **   ~~~   ** Supply-to-demand interface deck 1 mass flow rate check value iteration history trace: 8.133333E-002,8.133333E-002,8.133333E-002,8.133333E-002,8.133333E-002,8.133333E-002,8.133333E-002,8.133333E-002,8.133333E-002,8.133333E-002,
   **   ~~~   ** Air System Named = CENTRAL SYSTEM did not converge for energy
   **   ~~~   ** Check values should be zero. Most Recent values listed first.
   **   ~~~   ** Demand-to-Supply interface energy check value iteration history trace: 1517.474148,1517.474148,1517.474148,1517.474148,1517.474148,1517.474148,1517.474148,1517.474148,1517.474148,1517.474147,
   **   ~~~   ** Supply-to-demand interface deck 1 energy check value iteration history trace: 2399.005376,2399.005375,2399.005375,2399.005375,2399.005375,2399.005375,2399.005375,2399.005375,2399.005374,2399.005374,
   ** Warning ** SimHVAC: Maximum iterations (20) exceeded for all HVAC loops, at ANNUAL, 01/02 16:30 - 16:45
   **   ~~~   ** The solution for one or more of the Air Loop HVAC systems did not appear to converge
   **   ~~~   ** Air System Named = CENTRAL SYSTEM did not converge for mass flow rate
   **   ~~~   ** Check values should be zero. Most Recent values listed first.
   **   ~~~   ** Demand-to-Supply interface mass flow rate check value iteration history trace: 5.700718E-002,5.700718E-002,5.700718E-002,5.700718E-002,5.700718E-002,5.700718E-002,5.700718E-002,5.700718E-002,5.700718E-002,5.700718E-002,
   **   ~~~   ** Supply-to-demand interface deck 1 mass flow rate check value iteration history trace: 5.700718E-002,5.700718E-002,5.700718E-002,5.700718E-002,5.700718E-002,5.700718E-002,5.700718E-002,5.700718E-002,5.700718E-002,5.700718E-002,
   **   ~~~   ** Air System Named = CENTRAL SYSTEM did not converge for energy
   **   ~~~   ** Check values should be zero. Most Recent values listed first.
   **   ~~~   ** Demand-to-Supply interface energy check value iteration history trace: 1128.525273,1128.525273,1128.525273,1128.525273,1128.525273,1128.525273,1128.525273,1128.525273,1128.525273,1128.525273,
   **   ~~~   ** Supply-to-demand interface deck 1 energy check value iteration history trace: 2066.368331,2066.368331,2066.368331,2066.368330,2066.368330,2066.368330,2066.368330,2066.368330,2066.368330,2066.368330,
   ** Warning ** SimHVAC: Maximum iterations (20) exceeded for all HVAC loops, at ANNUAL, 01/04 11:03 - 11:06
   **   ~~~   ** The solution for one or more of the Air Loop HVAC systems did not appear to converge
   **   ~~~   ** Air System Named = CENTRAL SYSTEM did not converge for mass flow rate
   **   ~~~   ** Check values should be zero. Most Recent values listed first.
   **   ~~~   ** Demand-to-Supply interface mass flow rate check value iteration history trace: 7.906915E-002,7.906915E-002,7.906915E-002,7.906915E-002,7.906915E-002,7.906915E-002,7.906915E-002,7.906915E-002,7.906915E-002,7.906915E-002,
   **   ~~~   ** Supply-to-demand interface deck 1 mass flow rate check value iteration history trace: 7.906915E-002,7.906915E-002,7.906915E-002,7.906915E-002,7.906915E-002,7.906915E-002,7.906915E-002,7.906915E-002,7.906915E-002,7.906915E-002,
   **   ~~~   ** Air System Named = CENTRAL SYSTEM did not converge for energy
   **   ~~~   ** Check values should be zero. Most Recent values listed first.
   **   ~~~   ** Demand-to-Supply interface energy check value iteration history trace: 1566.988025,1566.988025,1566.988025,1566.988025,1566.988025,1566.988024,1566.988024,1566.988024,1566.988024,1566.988024,
   **   ~~~   ** Supply-to-demand interface deck 1 energy check value iteration history trace: 2497.218450,2497.218450,2497.218450,2497.218450,2497.218450,2497.218450,2497.218449,2497.218449,2497.218449,2497.218449,
   ** Warning ** SimHVAC: Maximum iterations (20) exceeded for all HVAC loops, at ANNUAL, 01/05 12:55 - 13:00
   **   ~~~   ** The solution for one or more of the Air Loop HVAC systems did not appear to converge
   **   ~~~   ** Air System Named = CENTRAL SYSTEM did not converge for mass flow rate
   **   ~~~   ** Check values should be zero. Most Recent values listed first.
   **   ~~~   ** Demand-to-Supply interface mass flow rate check value iteration history trace: 5.121834E-002,5.121834E-002,5.121834E-002,5.121834E-002,5.121834E-002,5.121834E-002,5.121834E-002,5.121834E-002,5.121834E-002,5.121834E-002,
   **   ~~~   ** Supply-to-demand interface deck 1 mass flow rate check value iteration history trace: 5.121834E-002,5.121834E-002,5.121834E-002,5.121834E-002,5.121834E-002,5.121834E-002,5.121834E-002,5.121834E-002,5.121834E-002,5.121834E-002,
   **   ~~~   ** Air System Named = CENTRAL SYSTEM did not converge for energy
   **   ~~~   ** Check values should be zero. Most Recent values listed first.
   **   ~~~   ** Demand-to-Supply interface energy check value iteration history trace: 1011.475144,1011.475144,1011.475144,1011.475144,1011.475144,1011.475143,1011.475143,1011.475143,1011.475143,1011.475143,
   **   ~~~   ** Supply-to-demand interface deck 1 energy check value iteration history trace: 1773.326812,1773.326812,1773.326812,1773.326811,1773.326811,1773.326811,1773.326811,1773.326811,1773.326811,1773.326811,
   ** Warning ** SimHVAC: Maximum iterations (20) exceeded for all HVAC loops, at ANNUAL, 01/06 21:15 - 21:30
   **   ~~~   ** The solution for one or more of the Air Loop HVAC systems did not appear to converge
   **   ~~~   ** Air System Named = CENTRAL SYSTEM did not converge for mass flow rate
   **   ~~~   ** Check values should be zero. Most Recent values listed first.
   **   ~~~   ** Demand-to-Supply interface mass flow rate check value iteration history trace: 7.658454E-002,7.658454E-002,7.658454E-002,7.658454E-002,7.658454E-002,7.658454E-002,7.658454E-002,7.658454E-002,7.658454E-002,7.658454E-002,
   **   ~~~   ** Supply-to-demand interface deck 1 mass flow rate check value iteration history trace: 7.658454E-002,7.658454E-002,7.658454E-002,7.658454E-002,7.658454E-002,7.658454E-002,7.658454E-002,7.658454E-002,7.658454E-002,7.658454E-002,
   **   ~~~   ** Air System Named = CENTRAL SYSTEM did not converge for energy
   **   ~~~   ** Check values should be zero. Most Recent values listed first.
   **   ~~~   ** Demand-to-Supply interface energy check value iteration history trace: 1506.528575,1506.528575,1506.528575,1506.528575,1506.528575,1506.528575,1506.528575,1506.528575,1506.528574,1506.528574,
   **   ~~~   ** Supply-to-demand interface deck 1 energy check value iteration history trace: 2415.610467,2415.610467,2415.610467,2415.610466,2415.610466,2415.610466,2415.610466,2415.610466,2415.610466,2415.610466,
   ** Warning ** SimHVAC: Maximum iterations (20) exceeded for all HVAC loops, at ANNUAL, 01/15 09:15 - 09:18
   **   ~~~   ** The solution for one or more of the Air Loop HVAC systems did not appear to converge
   **   ~~~   ** Air System Named = CENTRAL SYSTEM did not converge for mass flow rate
   **   ~~~   ** Check values should be zero. Most Recent values listed first.
   **   ~~~   ** Demand-to-Supply interface mass flow rate check value iteration history trace: 6.574409E-002,6.574409E-002,6.574409E-002,6.574409E-002,6.574409E-002,6.574409E-002,6.574409E-002,6.574409E-002,6.574409E-002,6.574409E-002,
   **   ~~~   ** Supply-to-demand interface deck 1 mass flow rate check value iteration history trace: 6.574409E-002,6.574409E-002,6.574409E-002,6.574409E-002,6.574409E-002,6.574409E-002,6.574409E-002,6.574409E-002,6.574409E-002,6.574409E-002,
   **   ~~~   ** Air System Named = CENTRAL SYSTEM did not converge for energy
   **   ~~~   ** Check values should be zero. Most Recent values listed first.
   **   ~~~   ** Demand-to-Supply interface energy check value iteration history trace: 1302.745185,1302.745185,1302.745185,1302.745185,1302.745185,1302.745185,1302.745185,1302.745185,1302.745185,1302.745185,
   **   ~~~   ** Supply-to-demand interface deck 1 energy check value iteration history trace: 2329.408376,2329.408376,2329.408376,2329.408376,2329.408376,2329.408376,2329.408376,2329.408376,2329.408376,2329.408376,
   ** Warning ** SimHVAC: Maximum iterations (20) exceeded for all HVAC loops, at ANNUAL, 01/16 09:45 - 10:00
   **   ~~~   ** The solution for one or more of the Air Loop HVAC systems did not appear to converge
   **   ~~~   ** Air System Named = CENTRAL SYSTEM did not converge for mass flow rate
   **   ~~~   ** Check values should be zero. Most Recent values listed first.
   **   ~~~   ** Demand-to-Supply interface mass flow rate check value iteration history trace: 6.815781E-002,6.815781E-002,6.815781E-002,6.815781E-002,6.815781E-002,6.815781E-002,6.815781E-002,6.815781E-002,6.815781E-002,6.815781E-002,
   **   ~~~   ** Supply-to-demand interface deck 1 mass flow rate check value iteration history trace: 6.815781E-002,6.815781E-002,6.815781E-002,6.815781E-002,6.815781E-002,6.815781E-002,6.815781E-002,6.815781E-002,6.815781E-002,6.815781E-002,
   **   ~~~   ** Air System Named = CENTRAL SYSTEM did not converge for energy
   **   ~~~   ** Check values should be zero. Most Recent values listed first.
   **   ~~~   ** Demand-to-Supply interface energy check value iteration history trace: 1350.646517,1350.646517,1350.646517,1350.646517,1350.646517,1350.646517,1350.646517,1350.646517,1350.646517,1350.646517,
   **   ~~~   ** Supply-to-demand interface deck 1 energy check value iteration history trace: 2387.797157,2387.797157,2387.797157,2387.797157,2387.797157,2387.797157,2387.797157,2387.797157,2387.797157,2387.797157,
   ** Warning ** SimHVAC: Maximum iterations (20) exceeded for all HVAC loops, at ANNUAL, 01/25 10:30 - 10:45
   **   ~~~   ** The solution for one or more of the Air Loop HVAC systems did not appear to converge
   **   ~~~   ** Air System Named = CENTRAL SYSTEM did not converge for mass flow rate
   **   ~~~   ** Check values should be zero. Most Recent values listed first.
   **   ~~~   ** Demand-to-Supply interface mass flow rate check value iteration history trace: 6.286962E-002,6.286962E-002,6.286962E-002,6.286962E-002,6.286962E-002,6.286962E-002,6.286962E-002,6.286962E-002,6.286962E-002,6.286962E-002,
   **   ~~~   ** Supply-to-demand interface deck 1 mass flow rate check value iteration history trace: 6.286962E-002,6.286962E-002,6.286962E-002,6.286962E-002,6.286962E-002,6.286962E-002,6.286962E-002,6.286962E-002,6.286962E-002,6.286962E-002,
   **   ~~~   ** Air System Named = CENTRAL SYSTEM did not converge for energy
   **   ~~~   ** Check values should be zero. Most Recent values listed first.
   **   ~~~   ** Demand-to-Supply interface energy check value iteration history trace: 1245.833641,1245.833641,1245.833641,1245.833641,1245.833641,1245.833641,1245.833641,1245.833641,1245.833641,1245.833641,
   **   ~~~   ** Supply-to-demand interface deck 1 energy check value iteration history trace: 2230.358960,2230.358960,2230.358960,2230.358960,2230.358959,2230.358959,2230.358959,2230.358959,2230.358959,2230.358959,
   ** Warning ** SimHVAC: Maximum iterations (20) exceeded for all HVAC loops, at ANNUAL, 02/04 09:15 - 09:17
   **   ~~~   ** The solution for one or more of the Air Loop HVAC systems did not appear to converge
   **   ~~~   ** Air System Named = CENTRAL SYSTEM did not converge for mass flow rate
   **   ~~~   ** Check values should be zero. Most Recent values listed first.
   **   ~~~   ** Demand-to-Supply interface mass flow rate check value iteration history trace: 6.601495E-002,6.601495E-002,6.601495E-002,6.601495E-002,6.601495E-002,6.601495E-002,6.601495E-002,6.601495E-002,6.601495E-002,6.601495E-002,
   **   ~~~   ** Supply-to-demand interface deck 1 mass flow rate check value iteration history trace: 6.601495E-002,6.601495E-002,6.601495E-002,6.601495E-002,6.601495E-002,6.601495E-002,6.601495E-002,6.601495E-002,6.601495E-002,6.601495E-002,
   **   ~~~   ** Air System Named = CENTRAL SYSTEM did not converge for energy
   **   ~~~   ** Check values should be zero. Most Recent values listed first.
   **   ~~~   ** Demand-to-Supply interface energy check value iteration history trace: 1308.145700,1308.145700,1308.145700,1308.145700,1308.145700,1308.145700,1308.145700,1308.145700,1308.145700,1308.145700,
   **   ~~~   ** Supply-to-demand interface deck 1 energy check value iteration history trace: 2412.626630,2412.626630,2412.626630,2412.626630,2412.626630,2412.626630,2412.626630,2412.626630,2412.626630,2412.626630,
   ** Warning ** Temperature out of range [-100. to 200.] (PsyPsatFnTemp)
   **   ~~~   **  Routine=PsyTwbFnTdbWPb, Environment=ANNUAL, at Simulation time=03/05 07:15 - 07:22
   **   ~~~   **  Input Temperature=-154.34
   ** Warning ** SimHVAC: Maximum iterations (20) exceeded for all HVAC loops, at ANNUAL, 03/06 08:30 - 08:45
   **   ~~~   ** The solution for one or more of the Air Loop HVAC systems did not appear to converge
   **   ~~~   ** Air System Named = CENTRAL SYSTEM did not converge for mass flow rate
   **   ~~~   ** Check values should be zero. Most Recent values listed first.
   **   ~~~   ** Demand-to-Supply interface mass flow rate check value iteration history trace: 5.770886E-002,5.770886E-002,5.770886E-002,5.770886E-002,5.770886E-002,5.770886E-002,5.770886E-002,5.770886E-002,5.770886E-002,5.770886E-002,
   **   ~~~   ** Supply-to-demand interface deck 1 mass flow rate check value iteration history trace: 5.770886E-002,5.770886E-002,5.770886E-002,5.770886E-002,5.770886E-002,5.770886E-002,5.770886E-002,5.770886E-002,5.770886E-002,5.770886E-002,
   **   ~~~   ** Air System Named = CENTRAL SYSTEM did not converge for energy
   **   ~~~   ** Check values should be zero. Most Recent values listed first.
   **   ~~~   ** Demand-to-Supply interface energy check value iteration history trace: 1127.551047,1127.551047,1127.551047,1127.551047,1127.551047,1127.551047,1127.551047,1127.551047,1127.551047,1127.551047,
   **   ~~~   ** Supply-to-demand interface deck 1 energy check value iteration history trace: 2152.993688,2152.993688,2152.993688,2152.993688,2152.993688,2152.993688,2152.993688,2152.993688,2152.993688,2152.993687,
   ** Warning ** SimHVAC: Maximum iterations (20) exceeded for all HVAC loops, at ANNUAL, 03/11 06:45 - 07:00
   **   ~~~   ** The solution for one or more of the Air Loop HVAC systems did not appear to converge
   **   ~~~   ** Air System Named = CENTRAL SYSTEM did not converge for mass flow rate
   **   ~~~   ** Check values should be zero. Most Recent values listed first.
   **   ~~~   ** Demand-to-Supply interface mass flow rate check value iteration history trace: 4.968714E-002,4.968714E-002,4.968714E-002,4.968714E-002,4.968714E-002,4.968714E-002,4.968714E-002,4.968714E-002,4.968714E-002,4.968714E-002,
   **   ~~~   ** Supply-to-demand interface deck 1 mass flow rate check value iteration history trace: 4.968714E-002,4.968714E-002,4.968714E-002,4.968714E-002,4.968714E-002,4.968714E-002,4.968714E-002,4.968714E-002,4.968714E-002,4.968714E-002,
   **   ~~~   ** Air System Named = CENTRAL SYSTEM did not converge for energy
   **   ~~~   ** Check values should be zero. Most Recent values listed first.
   **   ~~~   ** Demand-to-Supply interface energy check value iteration history trace: 984.624903,984.624903,984.624903,984.624903,984.624903,984.624903,984.624903,984.624903,984.624903,984.624903,
   **   ~~~   ** Supply-to-demand interface deck 1 energy check value iteration history trace: 1802.549033,1802.549033,1802.549033,1802.549033,1802.549033,1802.549033,1802.549033,1802.549033,1802.549033,1802.549032,
   ** Warning ** SimHVAC: Maximum iterations (20) exceeded for all HVAC loops, at ANNUAL, 03/27 07:45 - 07:48
   **   ~~~   ** The solution for one or more of the Air Loop HVAC systems did not appear to converge
   **   ~~~   ** Air System Named = CENTRAL SYSTEM did not converge for mass flow rate
   **   ~~~   ** Check values should be zero. Most Recent values listed first.
   **   ~~~   ** Demand-to-Supply interface mass flow rate check value iteration history trace: 5.292065E-002,5.292065E-002,5.292065E-002,5.292065E-002,5.292065E-002,5.292065E-002,5.292065E-002,5.292065E-002,5.292065E-002,5.292065E-002,
   **   ~~~   ** Supply-to-demand interface deck 1 mass flow rate check value iteration history trace: 5.292065E-002,5.292065E-002,5.292065E-002,5.292065E-002,5.292065E-002,5.292065E-002,5.292065E-002,5.292065E-002,5.292065E-002,5.292065E-002,
   **   ~~~   ** Air System Named = CENTRAL SYSTEM did not converge for energy
   **   ~~~   ** Check values should be zero. Most Recent values listed first.
   **   ~~~   ** Demand-to-Supply interface energy check value iteration history trace: 1043.612740,1043.612740,1043.612740,1043.612740,1043.612740,1043.612740,1043.612740,1043.612740,1043.612739,1043.612739,
   **   ~~~   ** Supply-to-demand interface deck 1 energy check value iteration history trace: 1901.340134,1901.340134,1901.340134,1901.340134,1901.340134,1901.340134,1901.340134,1901.340133,1901.340133,1901.340133,
   ************* Simulation Error Summary *************
   ** Warning ** The following Report Variables were requested but not generated -- check.rdd file
   **   ~~~   ** Either the IDF did not contain these elements, the variable name is misspelled,
   **   ~~~   ** or the requested variable is an advanced output which requires Output : Diagnostics, DisplayAdvancedReportVariables;
   ************* Key=*, VarName=BASEBOARD TOTAL HEATING ENERGY, Frequency=
   ************* Key=*, VarName=WATER HEATER NATURALGAS ENERGY, Frequency=
   ************* Key=*, VarName=COOLING COIL TOTAL HEATING ENERGY, Frequency=
   ************* There are 34 unused schedules in input.
   ************* There are 388 unused week schedules in input.
   ************* There are 396 unused day schedules in input.
   ************* Use Output:Diagnostics,DisplayUnusedSchedules; to see them.
   *************
   ************* ===== Recurring Error Summary =====
   ************* The following recurring error messages occurred.
   *************
   *************  ** Warning ** "TOTAL HOT WATER LOAD" - Target water temperature should be less than or equal to the hot water temperature error continues...
   *************  **   ~~~   **   This error occurred 198147 total times;
   *************  **   ~~~   **   during Warmup 0 times;
   *************  **   ~~~   **   during Sizing 0 times.
   *************  **   ~~~   **   Max=11.493093  Min=5.852580E-004
   *************
   *************  ** Warning ** Temperature out of range [-100. to 200.] (PsyPsatFnTemp)
   *************  **   ~~~   **   This error occurred 2 total times;
   *************  **   ~~~   **   during Warmup 0 times;
   *************  **   ~~~   **   during Sizing 0 times.
   *************  **   ~~~   **   Max=-154.344551 C  Min=-166.66993 C
   *************
   *************  ** Warning ** SimHVAC: Exceeding Maximum iterations for all HVAC loops, during ANNUAL continues
   *************  **   ~~~   **   This error occurred 13 total times;
   *************  **   ~~~   **   during Warmup 0 times;
   *************  **   ~~~   **   during Sizing 0 times.
   *************
   *************
   ************* ===== Final Error Summary =====
   ************* The following error categories occurred.  Consider correcting or noting.
   ************* Nominally Unused Constructions
   ************* ..The nominally unused constructions warning is provided to alert you to potential conditions that can cause
   ************* ..extra time during simulation. Each construction is calculated by the algorithm indicated in the HeatBalanceAlgorithm
   ************* ..object. You may remove the constructions indicated (when you use the DisplayExtraWarnings option).
   *************
   ************* EnergyPlus Warmup Error Summary. During Warmup: 1 Warning; 0 Severe Errors.
   ************* EnergyPlus Sizing Error Summary. During Sizing: 4 Warning; 0 Severe Errors.
   ************* EnergyPlus Completed Successfully-- 198194 Warning; 0 Severe Errors; Elapsed Time=00hr 01min 51.47sec
