Program Version,EnergyPlus, Version 22.2.0-c249759bad, YMD=2023.09.01 17:51,
   ************* Beginning Zone Sizing Calculations
   ** Warning ** ProcessScheduleInput: Schedule:Constant="ALWAYS ON DISCRETE", Schedule Type Limits Name="ONOFF" not found -- will not be validated
   ** Warning ** Foundation:Kiva="KIVA FOUNDATION", no Interior Horizontal Insulation Material Name defined
   **   ~~~   ** Interior Horizontal Insulation Depth will not be used.
   ** Warning ** CheckUsedConstructions: There are 15 nominally unused constructions in input.
   **   ~~~   ** Each Unused construction is shown.
   ************* Construction=INTERIOR FLOOR
   ************* Construction=INTERIOR WINDOW
   ************* Construction=EXTERIOR DOOR
   ************* Construction=INTERIOR DOOR
   ************* Construction=GABLE CONSTRUCTION
   ************* Construction=CRAWL_FLOOR
   ************* Construction=INSULATED PIPE
   ************* Construction=PLAIN PIPE
   ************* Construction=TDD PIPE
   ************* Construction=TDD DOME
   ************* Construction=TDD DIFFUSER
   ************* Construction=CRAWL WALL
   ************* Construction=CEILING-FLOOR-LAYER
   ************* Construction=SLAB CONSTRUCTION W FULL R10 INSULATION
   ************* Construction=SLAB CONSTRUCTION W FULL R5 INSULATION
   ** Warning ** GetDXCoils: Coil:Heating:DX:SingleSpeed="DX_HEATING_COIL" curve values
   **   ~~~   ** ... Defrost Energy Input Ratio Function of Temperature Curve Name = DEFROSTEIR output is not equal to 1.0 (+ or - 10%) at rated conditions.
   **   ~~~   ** ... Curve output at rated conditions = 0.152
   ************* Beginning System Sizing Calculations
   ************* Beginning Plant Sizing Calculations
   ** Warning ** SizeDXCoil Coil:Cooling:DX:SingleSpeed DX_COOLING_COIL
   **   ~~~   ** ...Gross Rated Total Cooling Capacity [W] will be limited by the maximum rated volume flow per rated total capacity ratio.
   **   ~~~   ** ...DX coil volume flow rate ( m3/s ) = 0.448786
   **   ~~~   ** ...Requested capacity ( W ) = 6443.788
   **   ~~~   ** ...Requested flow/capacity ratio ( m3/s/W ) = 6.964E-005
   **   ~~~   ** ...Maximum flow/capacity ratio ( m3/s/W ) = 6.041E-005
   **   ~~~   ** ...Adjusted capacity ( W ) = 7429.013
   ** Warning ** Coil:WaterHeating:AirToWaterHeatPump:Wrapped "HEAT PUMP WATER HEATER EVAPORATOR": Rated air volume flow rate per watt of rated total water heating capacity is out of range
   **   ~~~   ** Min Rated Vol Flow Per Watt=[4.027E-005], Rated Vol Flow Per Watt=[1.510E-004], Max Rated Vol Flow Per Watt=[8.056E-005]. See Input-Output Reference Manual for valid range.
   ************* SizeFan: : Potential issue with equipment sizing for Fan:OnOff HEAT PUMP WATER HEATER FAN
   **   ~~~   ** User-Specified Maximum Flow Rate [m3/s] = 0.22653
   **   ~~~   ** differs from Design Size Maximum Flow Rate [m3/s] = 7.55250E-002
   **   ~~~   ** This may, or may not, indicate mismatched component sizes.
   **   ~~~   ** Verify that the value entered is intended and is consistent with other components.
   ** Warning ** Water heater = WATER HEATER TANK:  Recovery Efficiency and Energy Factor could not be calculated during the test for standard ratings
   **   ~~~   ** Setpoint was never recovered and/or heater never turned on
   ** Warning ** Check input. Pump nominal power or motor efficiency is set to 0, for pump=MAINS PRESSURE
   ** Warning ** Output:Meter: invalid Key Name="ELECTRIC_RANGE:INTERIOREQUIPMENT:ELECTRICITY" - not found.
   ** Warning ** Output:Meter: invalid Key Name="ELECTRIC_DRYER:INTERIOREQUIPMENT:ELECTRICITY" - not found.
   ** Warning ** Output:Meter: invalid Key Name="HEATRECOVERY:ELECTRICITY" - not found.
   ** Warning ** Output:Meter: invalid Key Name="HEATING:NATURALGAS" - not found.
   ** Warning ** Output:Meter: invalid Key Name="WATERSYSTEMS:NATURALGAS" - not found.
   ** Warning ** Output:Meter: invalid Key Name="PROPANE:FACILITY" - not found.
   ** Warning ** Output:Meter: invalid Key Name="HEATING:PROPANE" - not found.
   ************* Testing Individual Branch Integrity
   ************* All Branches passed integrity testing
   ************* Testing Individual Supply Air Path Integrity
   ************* All Supply Air Paths passed integrity testing
   ************* Testing Individual Return Air Path Integrity
   ************* All Return Air Paths passed integrity testing
   ************* No node connection errors were found.
   ************* Beginning Simulation
   ** Warning ** AirflowNetwork::Solver::validate_distribution: Heat pump water heater is simulated along with an AirflowNetwork but is not included in the AirflowNetwork.
   ** Warning ** CalcEquipmentFlowRates: "TOTAL HOT WATER LOAD" - Target water temperature is greater than the hot water temperature by (1.84E-002 C)
   **   ~~~   **  Environment=EXTREME_WINTER, at Simulation time=01/01 06:00 - 06:15
   **   ~~~   ** ...target water temperature     = 53.33 C
   **   ~~~   ** ...hot water temperature        = 53.31 C
   **   ~~~   ** ...Target water temperature should be less than or equal to the hot water temperature. Verify temperature setpoints and schedules.
   ** Warning ** SimHVAC: Maximum iterations (20) exceeded for all HVAC loops, at ANNUAL, 02/26 18:45 - 19:00
   **   ~~~   ** The solution for one or more of the Air Loop HVAC systems did not appear to converge
   **   ~~~   ** Air System Named = CENTRAL SYSTEM did not converge for mass flow rate
   **   ~~~   ** Check values should be zero. Most Recent values listed first.
   **   ~~~   ** Demand-to-Supply interface mass flow rate check value iteration history trace: 0.102962,0.102962,0.102962,0.102962,0.102962,0.102962,0.102962,0.102962,0.102962,0.102962,
   **   ~~~   ** Supply-to-demand interface deck 1 mass flow rate check value iteration history trace: 0.102962,0.102962,0.102962,0.102962,0.102962,0.102962,0.102962,0.102962,0.102962,0.102962,
   **   ~~~   ** Air System Named = CENTRAL SYSTEM did not converge for energy
   **   ~~~   ** Check values should be zero. Most Recent values listed first.
   **   ~~~   ** Demand-to-Supply interface energy check value iteration history trace: 2035.682724,2035.682724,2035.682724,2035.682724,2035.682724,2035.682724,2035.682723,2035.682723,2035.682723,2035.682723,
   **   ~~~   ** Supply-to-demand interface deck 1 energy check value iteration history trace: 3170.994194,3170.994193,3170.994193,3170.994193,3170.994193,3170.994193,3170.994192,3170.994192,3170.994192,3170.994192,
   ** Warning ** SimHVAC: Maximum iterations (20) exceeded for all HVAC loops, at ANNUAL, 03/04 18:30 - 18:45
   **   ~~~   ** The solution for one or more of the Air Loop HVAC systems did not appear to converge
   **   ~~~   ** Air System Named = CENTRAL SYSTEM did not converge for mass flow rate
   **   ~~~   ** Check values should be zero. Most Recent values listed first.
   **   ~~~   ** Demand-to-Supply interface mass flow rate check value iteration history trace: 8.203746E-002,8.203746E-002,8.203746E-002,8.203746E-002,8.203746E-002,8.203746E-002,8.203746E-002,8.203746E-002,8.203746E-002,8.203746E-002,
   **   ~~~   ** Supply-to-demand interface deck 1 mass flow rate check value iteration history trace: 8.203746E-002,8.203746E-002,8.203746E-002,8.203746E-002,8.203746E-002,8.203746E-002,8.203746E-002,8.203746E-002,8.203746E-002,8.203746E-002,
   **   ~~~   ** Air System Named = CENTRAL SYSTEM did not converge for energy
   **   ~~~   ** Check values should be zero. Most Recent values listed first.
   **   ~~~   ** Demand-to-Supply interface energy check value iteration history trace: 1624.556978,1624.556978,1624.556978,1624.556978,1624.556978,1624.556978,1624.556978,1624.556978,1624.556978,1624.556977,
   **   ~~~   ** Supply-to-demand interface deck 1 energy check value iteration history trace: 2599.572768,2599.572768,2599.572768,2599.572768,2599.572768,2599.572768,2599.572768,2599.572767,2599.572767,2599.572767,
   ** Warning ** SimHVAC: Maximum iterations (20) exceeded for all HVAC loops, at ANNUAL, 03/16 12:45 - 13:00
   **   ~~~   ** The solution for one or more of the Air Loop HVAC systems did not appear to converge
   **   ~~~   ** Air System Named = CENTRAL SYSTEM did not converge for mass flow rate
   **   ~~~   ** Check values should be zero. Most Recent values listed first.
   **   ~~~   ** Demand-to-Supply interface mass flow rate check value iteration history trace: 5.315584E-002,5.315584E-002,5.315584E-002,5.315584E-002,5.315584E-002,5.315584E-002,5.315584E-002,5.315584E-002,5.315584E-002,5.315584E-002,
   **   ~~~   ** Supply-to-demand interface deck 1 mass flow rate check value iteration history trace: 5.315584E-002,5.315584E-002,5.315584E-002,5.315584E-002,5.315584E-002,5.315584E-002,5.315584E-002,5.315584E-002,5.315584E-002,5.315584E-002,
   **   ~~~   ** Air System Named = CENTRAL SYSTEM did not converge for energy
   **   ~~~   ** Check values should be zero. Most Recent values listed first.
   **   ~~~   ** Demand-to-Supply interface energy check value iteration history trace: 1052.790617,1052.790617,1052.790617,1052.790617,1052.790617,1052.790617,1052.790617,1052.790617,1052.790617,1052.790617,
   **   ~~~   ** Supply-to-demand interface deck 1 energy check value iteration history trace: 1906.791029,1906.791029,1906.791029,1906.791029,1906.791029,1906.791029,1906.791029,1906.791029,1906.791029,1906.791029,
   ** Warning ** SimHVAC: Maximum iterations (20) exceeded for all HVAC loops, at ANNUAL, 04/14 07:45 - 08:00
   **   ~~~   ** The solution for one or more of the Air Loop HVAC systems did not appear to converge
   **   ~~~   ** Air System Named = CENTRAL SYSTEM did not converge for mass flow rate
   **   ~~~   ** Check values should be zero. Most Recent values listed first.
   **   ~~~   ** Demand-to-Supply interface mass flow rate check value iteration history trace: 6.143512E-002,6.143512E-002,6.143512E-002,6.143512E-002,6.143512E-002,6.143512E-002,6.143512E-002,6.143512E-002,6.143512E-002,6.143512E-002,
   **   ~~~   ** Supply-to-demand interface deck 1 mass flow rate check value iteration history trace: 6.143512E-002,6.143512E-002,6.143512E-002,6.143512E-002,6.143512E-002,6.143512E-002,6.143512E-002,6.143512E-002,6.143512E-002,6.143512E-002,
   **   ~~~   ** Air System Named = CENTRAL SYSTEM did not converge for energy
   **   ~~~   ** Check values should be zero. Most Recent values listed first.
   **   ~~~   ** Demand-to-Supply interface energy check value iteration history trace: 1211.144451,1211.144451,1211.144451,1211.144451,1211.144451,1211.144451,1211.144451,1211.144451,1211.144451,1211.144451,
   **   ~~~   ** Supply-to-demand interface deck 1 energy check value iteration history trace: 2121.416762,2121.416762,2121.416762,2121.416762,2121.416762,2121.416762,2121.416762,2121.416762,2121.416762,2121.416761,
   ** Warning ** SimHVAC: Maximum iterations (20) exceeded for all HVAC loops, at ANNUAL, 05/01 08:36 - 08:39
   **   ~~~   ** The solution for one or more of the Air Loop HVAC systems did not appear to converge
   **   ~~~   ** Air System Named = CENTRAL SYSTEM did not converge for mass flow rate
   **   ~~~   ** Check values should be zero. Most Recent values listed first.
   **   ~~~   ** Demand-to-Supply interface mass flow rate check value iteration history trace: 5.905542E-002,5.905542E-002,5.905542E-002,5.905542E-002,5.905542E-002,5.905542E-002,5.905542E-002,5.905542E-002,5.905542E-002,5.905542E-002,
   **   ~~~   ** Supply-to-demand interface deck 1 mass flow rate check value iteration history trace: 5.905542E-002,5.905542E-002,5.905542E-002,5.905542E-002,5.905542E-002,5.905542E-002,5.905542E-002,5.905542E-002,5.905542E-002,5.905542E-002,
   **   ~~~   ** Air System Named = CENTRAL SYSTEM did not converge for energy
   **   ~~~   ** Check values should be zero. Most Recent values listed first.
   **   ~~~   ** Demand-to-Supply interface energy check value iteration history trace: 1170.305282,1170.305282,1170.305282,1170.305282,1170.305282,1170.305282,1170.305282,1170.305282,1170.305281,1170.305281,
   **   ~~~   ** Supply-to-demand interface deck 1 energy check value iteration history trace: 2007.787403,2007.787403,2007.787403,2007.787403,2007.787403,2007.787403,2007.787403,2007.787403,2007.787403,2007.787402,
   ** Warning ** SimHVAC: Maximum iterations (20) exceeded for all HVAC loops, at ANNUAL, 05/02 08:49 - 08:51
   **   ~~~   ** The solution for one or more of the Air Loop HVAC systems did not appear to converge
   **   ~~~   ** Air System Named = CENTRAL SYSTEM did not converge for mass flow rate
   **   ~~~   ** Check values should be zero. Most Recent values listed first.
   **   ~~~   ** Demand-to-Supply interface mass flow rate check value iteration history trace: 8.483398E-002,8.483398E-002,8.483398E-002,8.483398E-002,8.483398E-002,8.483398E-002,8.483398E-002,8.483398E-002,8.483398E-002,8.483398E-002,
   **   ~~~   ** Supply-to-demand interface deck 1 mass flow rate check value iteration history trace: 8.483398E-002,8.483398E-002,8.483398E-002,8.483398E-002,8.483398E-002,8.483398E-002,8.483398E-002,8.483398E-002,8.483398E-002,8.483398E-002,
   **   ~~~   ** Air System Named = CENTRAL SYSTEM did not converge for energy
   **   ~~~   ** Check values should be zero. Most Recent values listed first.
   **   ~~~   ** Demand-to-Supply interface energy check value iteration history trace: 1678.276630,1678.276630,1678.276630,1678.276630,1678.276630,1678.276630,1678.276630,1678.276629,1678.276629,1678.276629,
   **   ~~~   ** Supply-to-demand interface deck 1 energy check value iteration history trace: 2686.949249,2686.949249,2686.949249,2686.949249,2686.949249,2686.949249,2686.949248,2686.949248,2686.949248,2686.949248,
   ** Warning ** SimHVAC: Maximum iterations (20) exceeded for all HVAC loops, at ANNUAL, 05/03 08:43 - 08:45
   **   ~~~   ** The solution for one or more of the Air Loop HVAC systems did not appear to converge
   **   ~~~   ** Air System Named = CENTRAL SYSTEM did not converge for mass flow rate
   **   ~~~   ** Check values should be zero. Most Recent values listed first.
   **   ~~~   ** Demand-to-Supply interface mass flow rate check value iteration history trace: 6.025389E-002,6.025389E-002,6.025389E-002,6.025389E-002,6.025389E-002,6.025389E-002,6.025389E-002,6.025389E-002,6.025389E-002,6.025389E-002,
   **   ~~~   ** Supply-to-demand interface deck 1 mass flow rate check value iteration history trace: 6.025389E-002,6.025389E-002,6.025389E-002,6.025389E-002,6.025389E-002,6.025389E-002,6.025389E-002,6.025389E-002,6.025389E-002,6.025389E-002,
   **   ~~~   ** Air System Named = CENTRAL SYSTEM did not converge for energy
   **   ~~~   ** Check values should be zero. Most Recent values listed first.
   **   ~~~   ** Demand-to-Supply interface energy check value iteration history trace: 1188.958714,1188.958714,1188.958714,1188.958714,1188.958714,1188.958713,1188.958713,1188.958713,1188.958713,1188.958713,
   **   ~~~   ** Supply-to-demand interface deck 1 energy check value iteration history trace: 2095.973256,2095.973256,2095.973256,2095.973255,2095.973255,2095.973255,2095.973255,2095.973255,2095.973255,2095.973255,
   ** Warning ** SimHVAC: Maximum iterations (20) exceeded for all HVAC loops, at ANNUAL, 05/10 07:00 - 07:03
   **   ~~~   ** The solution for one or more of the Air Loop HVAC systems did not appear to converge
   **   ~~~   ** Air System Named = CENTRAL SYSTEM did not converge for mass flow rate
   **   ~~~   ** Check values should be zero. Most Recent values listed first.
   **   ~~~   ** Demand-to-Supply interface mass flow rate check value iteration history trace: 9.548695E-002,9.548695E-002,9.548695E-002,9.548695E-002,9.548695E-002,9.548695E-002,9.548695E-002,9.548695E-002,9.548695E-002,9.548695E-002,
   **   ~~~   ** Supply-to-demand interface deck 1 mass flow rate check value iteration history trace: 9.548695E-002,9.548695E-002,9.548695E-002,9.548695E-002,9.548695E-002,9.548695E-002,9.548695E-002,9.548695E-002,9.548695E-002,9.548695E-002,
   **   ~~~   ** Air System Named = CENTRAL SYSTEM did not converge for energy
   **   ~~~   ** Check values should be zero. Most Recent values listed first.
   **   ~~~   ** Demand-to-Supply interface energy check value iteration history trace: 1892.165272,1892.165272,1892.165272,1892.165272,1892.165272,1892.165272,1892.165272,1892.165271,1892.165271,1892.165271,
   **   ~~~   ** Supply-to-demand interface deck 1 energy check value iteration history trace: 2930.707117,2930.707117,2930.707117,2930.707117,2930.707117,2930.707116,2930.707116,2930.707116,2930.707116,2930.707116,
   ** Warning ** SimHVAC: Maximum iterations (20) exceeded for all HVAC loops, at ANNUAL, 06/05 06:23 - 06:26
   **   ~~~   ** The solution for one or more of the Air Loop HVAC systems did not appear to converge
   **   ~~~   ** Air System Named = CENTRAL SYSTEM did not converge for mass flow rate
   **   ~~~   ** Check values should be zero. Most Recent values listed first.
   **   ~~~   ** Demand-to-Supply interface mass flow rate check value iteration history trace: 0.168418,0.168418,0.168418,0.168418,0.168418,0.168418,0.168418,0.168418,0.168418,0.168418,
   **   ~~~   ** Supply-to-demand interface deck 1 mass flow rate check value iteration history trace: 0.168418,0.168418,0.168418,0.168418,0.168418,0.168418,0.168418,0.168418,0.168418,0.168418,
   **   ~~~   ** Air System Named = CENTRAL SYSTEM did not converge for energy
   **   ~~~   ** Check values should be zero. Most Recent values listed first.
   **   ~~~   ** Demand-to-Supply interface energy check value iteration history trace: 4025.661649,4025.661649,4025.661650,4025.661650,4025.661650,4025.661650,4025.661651,4025.661651,4025.661651,4025.661651,
   **   ~~~   ** Supply-to-demand interface deck 1 energy check value iteration history trace: 1621.275850,1621.275850,1621.275850,1621.275850,1621.275851,1621.275851,1621.275851,1621.275851,1621.275851,1621.275851,
   ** Warning ** SimHVAC: Maximum iterations (20) exceeded for all HVAC loops, at ANNUAL, 06/05 07:38 - 07:41
   **   ~~~   ** The solution for one or more of the Air Loop HVAC systems did not appear to converge
   **   ~~~   ** Air System Named = CENTRAL SYSTEM did not converge for mass flow rate
   **   ~~~   ** Check values should be zero. Most Recent values listed first.
   **   ~~~   ** Demand-to-Supply interface mass flow rate check value iteration history trace: 0.141112,0.141112,0.141112,0.141112,0.141112,0.141112,0.141112,0.141112,0.141112,0.141112,
   **   ~~~   ** Supply-to-demand interface deck 1 mass flow rate check value iteration history trace: 0.141112,0.141112,0.141112,0.141112,0.141112,0.141112,0.141112,0.141112,0.141112,0.141112,
   **   ~~~   ** Air System Named = CENTRAL SYSTEM did not converge for energy
   **   ~~~   ** Check values should be zero. Most Recent values listed first.
   **   ~~~   ** Demand-to-Supply interface energy check value iteration history trace: 3361.966518,3361.966518,3361.966518,3361.966519,3361.966519,3361.966519,3361.966519,3361.966519,3361.966520,3361.966520,
   **   ~~~   ** Supply-to-demand interface deck 1 energy check value iteration history trace: 1250.532036,1250.532036,1250.532036,1250.532036,1250.532036,1250.532036,1250.532036,1250.532036,1250.532037,1250.532037,
   ** Warning ** SimHVAC: Maximum iterations (20) exceeded for all HVAC loops, at ANNUAL, 06/14 19:05 - 19:10
   **   ~~~   ** The solution for one or more of the Air Loop HVAC systems did not appear to converge
   **   ~~~   ** Air System Named = CENTRAL SYSTEM did not converge for mass flow rate
   **   ~~~   ** Check values should be zero. Most Recent values listed first.
   **   ~~~   ** Demand-to-Supply interface mass flow rate check value iteration history trace: 5.845072E-002,5.845072E-002,5.845072E-002,5.845072E-002,5.845072E-002,5.845072E-002,5.845072E-002,5.845072E-002,5.845072E-002,5.845072E-002,
   **   ~~~   ** Supply-to-demand interface deck 1 mass flow rate check value iteration history trace: 5.845072E-002,5.845072E-002,5.845072E-002,5.845072E-002,5.845072E-002,5.845072E-002,5.845072E-002,5.845072E-002,5.845072E-002,5.845072E-002,
   **   ~~~   ** Air System Named = CENTRAL SYSTEM did not converge for energy
   **   ~~~   ** Check values should be zero. Most Recent values listed first.
   **   ~~~   ** Demand-to-Supply interface energy check value iteration history trace: 1382.041108,1382.041108,1382.041108,1382.041108,1382.041108,1382.041108,1382.041108,1382.041108,1382.041109,1382.041109,
   **   ~~~   ** Supply-to-demand interface deck 1 energy check value iteration history trace: 592.665676,592.665676,592.665676,592.665676,592.665676,592.665676,592.665676,592.665676,592.665676,592.665676,
   ** Warning ** SimHVAC: Maximum iterations (20) exceeded for all HVAC loops, at ANNUAL, 06/22 07:03 - 07:06
   **   ~~~   ** The solution for one or more of the Air Loop HVAC systems did not appear to converge
   **   ~~~   ** Air System Named = CENTRAL SYSTEM did not converge for mass flow rate
   **   ~~~   ** Check values should be zero. Most Recent values listed first.
   **   ~~~   ** Demand-to-Supply interface mass flow rate check value iteration history trace: 1.339897E-002,1.339897E-002,1.339897E-002,1.339897E-002,1.339897E-002,1.339897E-002,1.339897E-002,1.339897E-002,1.339897E-002,1.339897E-002,
   **   ~~~   ** Supply-to-demand interface deck 1 mass flow rate check value iteration history trace: 1.339897E-002,1.339897E-002,1.339897E-002,1.339897E-002,1.339897E-002,1.339897E-002,1.339897E-002,1.339897E-002,1.339897E-002,1.339897E-002,
   **   ~~~   ** Air System Named = CENTRAL SYSTEM did not converge for energy
   **   ~~~   ** Check values should be zero. Most Recent values listed first.
   **   ~~~   ** Demand-to-Supply interface energy check value iteration history trace: 314.312574,314.312574,314.312574,314.312574,314.312574,314.312574,314.312574,314.312574,314.312574,314.312574,
   **   ~~~   ** Supply-to-demand interface deck 1 energy check value iteration history trace: 136.375699,136.375699,136.375699,136.375699,136.375699,136.375699,136.375699,136.375699,136.375699,136.375699,
   ** Warning ** SimHVAC: Maximum iterations (20) exceeded for all HVAC loops, at ANNUAL, 06/27 13:30 - 13:45
   **   ~~~   ** The solution for one or more of the Air Loop HVAC systems did not appear to converge
   **   ~~~   ** Air System Named = CENTRAL SYSTEM did not converge for mass flow rate
   **   ~~~   ** Check values should be zero. Most Recent values listed first.
   **   ~~~   ** Demand-to-Supply interface mass flow rate check value iteration history trace: 0.127461,0.127461,0.127461,0.127461,0.127461,0.127461,0.127461,0.127461,0.127461,0.127461,
   **   ~~~   ** Supply-to-demand interface deck 1 mass flow rate check value iteration history trace: 0.127461,0.127461,0.127461,0.127461,0.127461,0.127461,0.127461,0.127461,0.127461,0.127461,
   **   ~~~   ** Air System Named = CENTRAL SYSTEM did not converge for energy
   **   ~~~   ** Check values should be zero. Most Recent values listed first.
   **   ~~~   ** Demand-to-Supply interface energy check value iteration history trace: 3075.050428,3075.050429,3075.050429,3075.050429,3075.050429,3075.050430,3075.050430,3075.050430,3075.050430,3075.050430,
   **   ~~~   ** Supply-to-demand interface deck 1 energy check value iteration history trace: 1510.951572,1510.951572,1510.951572,1510.951572,1510.951572,1510.951573,1510.951573,1510.951573,1510.951573,1510.951573,
   ** Warning ** SimHVAC: Maximum iterations (20) exceeded for all HVAC loops, at ANNUAL, 06/29 08:40 - 08:45
   **   ~~~   ** The solution for one or more of the Air Loop HVAC systems did not appear to converge
   **   ~~~   ** Air System Named = CENTRAL SYSTEM did not converge for mass flow rate
   **   ~~~   ** Check values should be zero. Most Recent values listed first.
   **   ~~~   ** Demand-to-Supply interface mass flow rate check value iteration history trace: 0.282720,0.282720,0.282720,0.282720,0.282720,0.282720,0.282720,0.282720,0.282720,0.282720,
   **   ~~~   ** Supply-to-demand interface deck 1 mass flow rate check value iteration history trace: 0.282720,0.282720,0.282720,0.282720,0.282720,0.282720,0.282720,0.282720,0.282720,0.282720,
   **   ~~~   ** Air System Named = CENTRAL SYSTEM did not converge for energy
   **   ~~~   ** Check values should be zero. Most Recent values listed first.
   **   ~~~   ** Demand-to-Supply interface energy check value iteration history trace: 6797.141485,6797.141485,6797.141485,6797.141486,6797.141486,6797.141487,6797.141487,6797.141487,6797.141488,6797.141488,
   **   ~~~   ** Supply-to-demand interface deck 1 energy check value iteration history trace: 2943.999510,2943.999511,2943.999511,2943.999511,2943.999511,2943.999511,2943.999512,2943.999512,2943.999512,2943.999512,
   ************* Simulation Error Summary *************
   ** Warning ** The following Report Variables were requested but not generated -- check.rdd file
   **   ~~~   ** Either the IDF did not contain these elements, the variable name is misspelled,
   **   ~~~   ** or the requested variable is an advanced output which requires Output : Diagnostics, DisplayAdvancedReportVariables;
   ************* Key=*, VarName=BASEBOARD TOTAL HEATING ENERGY, Frequency=
   ************* Key=*, VarName=WATER HEATER NATURALGAS ENERGY, Frequency=
   ************* Key=*, VarName=COOLING COIL TOTAL HEATING ENERGY, Frequency=
   ************* There are 34 unused schedules in input.
   ************* There are 388 unused week schedules in input.
   ************* There are 396 unused day schedules in input.
   ************* Use Output:Diagnostics,DisplayUnusedSchedules; to see them.
   *************
   ************* ===== Recurring Error Summary =====
   ************* The following recurring error messages occurred.
   *************
   *************  ** Warning ** "TOTAL HOT WATER LOAD" - Target water temperature should be less than or equal to the hot water temperature error continues...
   *************  **   ~~~   **   This error occurred 114341 total times;
   *************  **   ~~~   **   during Warmup 0 times;
   *************  **   ~~~   **   during Sizing 0 times.
   *************  **   ~~~   **   Max=9.517374  Min=4.243442E-003
   *************
   *************  ** Warning ** SimHVAC: Exceeding Maximum iterations for all HVAC loops, during ANNUAL continues
   *************  **   ~~~   **   This error occurred 3 total times;
   *************  **   ~~~   **   during Warmup 0 times;
   *************  **   ~~~   **   during Sizing 0 times.
   *************
   *************
   ************* ===== Final Error Summary =====
   ************* The following error categories occurred.  Consider correcting or noting.
   ************* Nominally Unused Constructions
   ************* ..The nominally unused constructions warning is provided to alert you to potential conditions that can cause
   ************* ..extra time during simulation. Each construction is calculated by the algorithm indicated in the HeatBalanceAlgorithm
   ************* ..object. You may remove the constructions indicated (when you use the DisplayExtraWarnings option).
   *************
   ************* EnergyPlus Warmup Error Summary. During Warmup: 1 Warning; 0 Severe Errors.
   ************* EnergyPlus Sizing Error Summary. During Sizing: 4 Warning; 0 Severe Errors.
   ************* EnergyPlus Completed Successfully-- 114376 Warning; 0 Severe Errors; Elapsed Time=00hr 05min 14.48sec
