Program Version,EnergyPlus, Version 22.2.0-c249759bad, YMD=2023.09.01 19:18,
   ************* Beginning Zone Sizing Calculations
   ** Warning ** ProcessScheduleInput: Schedule:Constant="ALWAYS ON DISCRETE", Schedule Type Limits Name="ONOFF" not found -- will not be validated
   ** Warning ** Foundation:Kiva="KIVA FOUNDATION", no Interior Horizontal Insulation Material Name defined
   **   ~~~   ** Interior Horizontal Insulation Depth will not be used.
   ** Warning ** CheckUsedConstructions: There are 15 nominally unused constructions in input.
   **   ~~~   ** Each Unused construction is shown.
   ************* Construction=INTERIOR FLOOR
   ************* Construction=INTERIOR WINDOW
   ************* Construction=EXTERIOR DOOR
   ************* Construction=INTERIOR DOOR
   ************* Construction=GABLE CONSTRUCTION
   ************* Construction=CRAWL_FLOOR
   ************* Construction=INSULATED PIPE
   ************* Construction=PLAIN PIPE
   ************* Construction=TDD PIPE
   ************* Construction=TDD DOME
   ************* Construction=TDD DIFFUSER
   ************* Construction=CRAWL WALL
   ************* Construction=CEILING-FLOOR-LAYER
   ************* Construction=SLAB CONSTRUCTION W FULL R10 INSULATION
   ************* Construction=SLAB CONSTRUCTION W FULL R5 INSULATION
   ** Warning ** GetDXCoils: Coil:Heating:DX:SingleSpeed="DX_HEATING_COIL" curve values
   **   ~~~   ** ... Defrost Energy Input Ratio Function of Temperature Curve Name = DEFROSTEIR output is not equal to 1.0 (+ or - 10%) at rated conditions.
   **   ~~~   ** ... Curve output at rated conditions = 0.152
   ************* Beginning System Sizing Calculations
   ************* Beginning Plant Sizing Calculations
   ** Warning ** SizeDXCoil Coil:Cooling:DX:SingleSpeed DX_COOLING_COIL
   **   ~~~   ** ...Gross Rated Total Cooling Capacity [W] will be limited by the maximum rated volume flow per rated total capacity ratio.
   **   ~~~   ** ...DX coil volume flow rate ( m3/s ) = 0.482933
   **   ~~~   ** ...Requested capacity ( W ) = 6556.530
   **   ~~~   ** ...Requested flow/capacity ratio ( m3/s/W ) = 7.365E-005
   **   ~~~   ** ...Maximum flow/capacity ratio ( m3/s/W ) = 6.041E-005
   **   ~~~   ** ...Adjusted capacity ( W ) = 7994.267
   ** Warning ** Coil:WaterHeating:AirToWaterHeatPump:Wrapped "HEAT PUMP WATER HEATER EVAPORATOR": Rated air volume flow rate per watt of rated total water heating capacity is out of range
   **   ~~~   ** Min Rated Vol Flow Per Watt=[4.027E-005], Rated Vol Flow Per Watt=[1.510E-004], Max Rated Vol Flow Per Watt=[8.056E-005]. See Input-Output Reference Manual for valid range.
   ************* SizeFan: : Potential issue with equipment sizing for Fan:OnOff HEAT PUMP WATER HEATER FAN
   **   ~~~   ** User-Specified Maximum Flow Rate [m3/s] = 0.22653
   **   ~~~   ** differs from Design Size Maximum Flow Rate [m3/s] = 7.55250E-002
   **   ~~~   ** This may, or may not, indicate mismatched component sizes.
   **   ~~~   ** Verify that the value entered is intended and is consistent with other components.
   ** Warning ** Water heater = WATER HEATER TANK:  Recovery Efficiency and Energy Factor could not be calculated during the test for standard ratings
   **   ~~~   ** Setpoint was never recovered and/or heater never turned on
   ** Warning ** Check input. Pump nominal power or motor efficiency is set to 0, for pump=MAINS PRESSURE
   ** Warning ** Output:Meter: invalid Key Name="ELECTRIC_RANGE:INTERIOREQUIPMENT:ELECTRICITY" - not found.
   ** Warning ** Output:Meter: invalid Key Name="ELECTRIC_DRYER:INTERIOREQUIPMENT:ELECTRICITY" - not found.
   ** Warning ** Output:Meter: invalid Key Name="HEATRECOVERY:ELECTRICITY" - not found.
   ** Warning ** Output:Meter: invalid Key Name="HEATING:NATURALGAS" - not found.
   ** Warning ** Output:Meter: invalid Key Name="WATERSYSTEMS:NATURALGAS" - not found.
   ** Warning ** Output:Meter: invalid Key Name="PROPANE:FACILITY" - not found.
   ** Warning ** Output:Meter: invalid Key Name="HEATING:PROPANE" - not found.
   ************* Testing Individual Branch Integrity
   ************* All Branches passed integrity testing
   ************* Testing Individual Supply Air Path Integrity
   ************* All Supply Air Paths passed integrity testing
   ************* Testing Individual Return Air Path Integrity
   ************* All Return Air Paths passed integrity testing
   ************* No node connection errors were found.
   ************* Beginning Simulation
   ** Warning ** AirflowNetwork::Solver::validate_distribution: Heat pump water heater is simulated along with an AirflowNetwork but is not included in the AirflowNetwork.
   ** Severe  ** CheckWarmupConvergence: Loads Initialization, Zone="LIVING" did not converge after 25 warmup days.
   **   ~~~   ** See Warmup Convergence Information in .eio file for details.
   **   ~~~   ** ...Environment(SizingPeriod)="EXTREME_WINTER"
   **   ~~~   ** ..Max Temp Comparison = 0.12 vs Temperature Convergence Tolerance=5.00E-002 - Fail Convergence
   **   ~~~   ** ..Min Temp Comparison = 3.89E-002 vs Temperature Convergence Tolerance=5.00E-002 - Pass Convergence
   **   ~~~   ** ..Max Heat Load Comparison = 4.0922E-002 vs Loads Convergence Tolerance=5.00E-002 - Pass Convergence
   **   ~~~   ** ..Max Cool Load Comparison = 0.1156 vs Loads Convergence Tolerance=5.00E-002 - Fail Convergence
   ** Warning ** CalcEquipmentFlowRates: "TOTAL HOT WATER LOAD" - Target water temperature is greater than the hot water temperature by (0.86 C)
   **   ~~~   **  Environment=EXTREME_WINTER, at Simulation time=12/22 06:45 - 07:00
   **   ~~~   ** ...target water temperature     = 53.33 C
   **   ~~~   ** ...hot water temperature        = 52.47 C
   **   ~~~   ** ...Target water temperature should be less than or equal to the hot water temperature. Verify temperature setpoints and schedules.
   ** Warning ** SimHVAC: Maximum iterations (20) exceeded for all HVAC loops, at ANNUAL, 01/31 11:45 - 12:00
   **   ~~~   ** The solution for one or more of the Air Loop HVAC systems did not appear to converge
   **   ~~~   ** Air System Named = CENTRAL SYSTEM did not converge for mass flow rate
   **   ~~~   ** Check values should be zero. Most Recent values listed first.
   **   ~~~   ** Demand-to-Supply interface mass flow rate check value iteration history trace: 7.453443E-002,7.453443E-002,7.453443E-002,7.453443E-002,7.453443E-002,7.453443E-002,7.453443E-002,7.453443E-002,7.453443E-002,7.453443E-002,
   **   ~~~   ** Supply-to-demand interface deck 1 mass flow rate check value iteration history trace: 7.453443E-002,7.453443E-002,7.453443E-002,7.453443E-002,7.453443E-002,7.453443E-002,7.453443E-002,7.453443E-002,7.453443E-002,7.453443E-002,
   **   ~~~   ** Air System Named = CENTRAL SYSTEM did not converge for energy
   **   ~~~   ** Check values should be zero. Most Recent values listed first.
   **   ~~~   ** Demand-to-Supply interface energy check value iteration history trace: 1477.023808,1477.023807,1477.023807,1477.023807,1477.023807,1477.023807,1477.023807,1477.023807,1477.023807,1477.023807,
   **   ~~~   ** Supply-to-demand interface deck 1 energy check value iteration history trace: 2334.321357,2334.321357,2334.321357,2334.321357,2334.321357,2334.321357,2334.321356,2334.321356,2334.321356,2334.321356,
   ** Warning ** Temperature out of range [-100. to 200.] (PsyPsatFnTemp)
   **   ~~~   **  Routine=PsyTwbFnTdbWPb, Environment=ANNUAL, at Simulation time=02/03 23:30 - 23:38
   **   ~~~   **  Input Temperature=-106.52
   ** Warning ** SimHVAC: Maximum iterations (20) exceeded for all HVAC loops, at ANNUAL, 02/04 14:15 - 14:30
   **   ~~~   ** The solution for one or more of the Air Loop HVAC systems did not appear to converge
   **   ~~~   ** Air System Named = CENTRAL SYSTEM did not converge for mass flow rate
   **   ~~~   ** Check values should be zero. Most Recent values listed first.
   **   ~~~   ** Demand-to-Supply interface mass flow rate check value iteration history trace: 4.363730E-002,4.363730E-002,4.363730E-002,4.363730E-002,4.363730E-002,4.363730E-002,4.363730E-002,4.363730E-002,4.363730E-002,4.363730E-002,
   **   ~~~   ** Supply-to-demand interface deck 1 mass flow rate check value iteration history trace: 4.363730E-002,4.363730E-002,4.363730E-002,4.363730E-002,4.363730E-002,4.363730E-002,4.363730E-002,4.363730E-002,4.363730E-002,4.363730E-002,
   **   ~~~   ** Air System Named = CENTRAL SYSTEM did not converge for energy
   **   ~~~   ** Check values should be zero. Most Recent values listed first.
   **   ~~~   ** Demand-to-Supply interface energy check value iteration history trace: 845.750427,845.750427,845.750427,845.750427,845.750427,845.750427,845.750427,845.750427,845.750427,845.750427,
   **   ~~~   ** Supply-to-demand interface deck 1 energy check value iteration history trace: 1587.385221,1587.385221,1587.385221,1587.385221,1587.385221,1587.385221,1587.385221,1587.385221,1587.385221,1587.385221,
   ** Warning ** SimHVAC: Maximum iterations (20) exceeded for all HVAC loops, at ANNUAL, 02/04 19:19 - 19:22
   **   ~~~   ** The solution for one or more of the Air Loop HVAC systems did not appear to converge
   **   ~~~   ** Air System Named = CENTRAL SYSTEM did not converge for mass flow rate
   **   ~~~   ** Check values should be zero. Most Recent values listed first.
   **   ~~~   ** Demand-to-Supply interface mass flow rate check value iteration history trace: 8.560569E-002,8.560569E-002,8.560569E-002,8.560569E-002,8.560569E-002,8.560569E-002,8.560569E-002,8.560569E-002,8.560569E-002,8.560569E-002,
   **   ~~~   ** Supply-to-demand interface deck 1 mass flow rate check value iteration history trace: 8.560569E-002,8.560569E-002,8.560569E-002,8.560569E-002,8.560569E-002,8.560569E-002,8.560569E-002,8.560569E-002,8.560569E-002,8.560569E-002,
   **   ~~~   ** Air System Named = CENTRAL SYSTEM did not converge for energy
   **   ~~~   ** Check values should be zero. Most Recent values listed first.
   **   ~~~   ** Demand-to-Supply interface energy check value iteration history trace: 1692.415744,1692.415744,1692.415744,1692.415743,1692.415743,1692.415743,1692.415743,1692.415743,1692.415743,1692.415743,
   **   ~~~   ** Supply-to-demand interface deck 1 energy check value iteration history trace: 2692.581311,2692.581311,2692.581311,2692.581310,2692.581310,2692.581310,2692.581310,2692.581310,2692.581310,2692.581310,
   ** Warning ** SimHVAC: Maximum iterations (20) exceeded for all HVAC loops, at ANNUAL, 02/11 12:15 - 12:30
   **   ~~~   ** The solution for one or more of the Air Loop HVAC systems did not appear to converge
   **   ~~~   ** Air System Named = CENTRAL SYSTEM did not converge for mass flow rate
   **   ~~~   ** Check values should be zero. Most Recent values listed first.
   **   ~~~   ** Demand-to-Supply interface mass flow rate check value iteration history trace: 5.821771E-002,5.821771E-002,5.821771E-002,5.821771E-002,5.821771E-002,5.821771E-002,5.821771E-002,5.821771E-002,5.821771E-002,5.821771E-002,
   **   ~~~   ** Supply-to-demand interface deck 1 mass flow rate check value iteration history trace: 5.821771E-002,5.821771E-002,5.821771E-002,5.821771E-002,5.821771E-002,5.821771E-002,5.821771E-002,5.821771E-002,5.821771E-002,5.821771E-002,
   **   ~~~   ** Air System Named = CENTRAL SYSTEM did not converge for energy
   **   ~~~   ** Check values should be zero. Most Recent values listed first.
   **   ~~~   ** Demand-to-Supply interface energy check value iteration history trace: 1134.358662,1134.358662,1134.358662,1134.358662,1134.358662,1134.358662,1134.358662,1134.358662,1134.358662,1134.358662,
   **   ~~~   ** Supply-to-demand interface deck 1 energy check value iteration history trace: 2049.821333,2049.821333,2049.821333,2049.821333,2049.821333,2049.821333,2049.821333,2049.821333,2049.821333,2049.821333,
   ** Warning ** SimHVAC: Maximum iterations (20) exceeded for all HVAC loops, at ANNUAL, 03/02 12:15 - 12:20
   **   ~~~   ** The solution for one or more of the Air Loop HVAC systems did not appear to converge
   **   ~~~   ** Air System Named = CENTRAL SYSTEM did not converge for mass flow rate
   **   ~~~   ** Check values should be zero. Most Recent values listed first.
   **   ~~~   ** Demand-to-Supply interface mass flow rate check value iteration history trace: 5.490134E-002,5.490134E-002,5.490134E-002,5.490134E-002,5.490134E-002,5.490134E-002,5.490134E-002,5.490134E-002,5.490134E-002,5.490134E-002,
   **   ~~~   ** Supply-to-demand interface deck 1 mass flow rate check value iteration history trace: 5.490134E-002,5.490134E-002,5.490134E-002,5.490134E-002,5.490134E-002,5.490134E-002,5.490134E-002,5.490134E-002,5.490134E-002,5.490134E-002,
   **   ~~~   ** Air System Named = CENTRAL SYSTEM did not converge for energy
   **   ~~~   ** Check values should be zero. Most Recent values listed first.
   **   ~~~   ** Demand-to-Supply interface energy check value iteration history trace: 1087.966296,1087.966296,1087.966296,1087.966296,1087.966296,1087.966296,1087.966296,1087.966296,1087.966296,1087.966296,
   **   ~~~   ** Supply-to-demand interface deck 1 energy check value iteration history trace: 2047.700628,2047.700628,2047.700628,2047.700628,2047.700628,2047.700628,2047.700628,2047.700628,2047.700628,2047.700628,
   ** Warning ** SimHVAC: Maximum iterations (20) exceeded for all HVAC loops, at ANNUAL, 03/18 10:00 - 10:15
   **   ~~~   ** The solution for one or more of the Air Loop HVAC systems did not appear to converge
   **   ~~~   ** Air System Named = CENTRAL SYSTEM did not converge for mass flow rate
   **   ~~~   ** Check values should be zero. Most Recent values listed first.
   **   ~~~   ** Demand-to-Supply interface mass flow rate check value iteration history trace: 8.497831E-002,8.497831E-002,8.497831E-002,8.497831E-002,8.497831E-002,8.497831E-002,8.497831E-002,8.497831E-002,8.497831E-002,8.497831E-002,
   **   ~~~   ** Supply-to-demand interface deck 1 mass flow rate check value iteration history trace: 8.497831E-002,8.497831E-002,8.497831E-002,8.497831E-002,8.497831E-002,8.497831E-002,8.497831E-002,8.497831E-002,8.497831E-002,8.497831E-002,
   **   ~~~   ** Air System Named = CENTRAL SYSTEM did not converge for energy
   **   ~~~   ** Check values should be zero. Most Recent values listed first.
   **   ~~~   ** Demand-to-Supply interface energy check value iteration history trace: 1682.822955,1682.822955,1682.822955,1682.822955,1682.822955,1682.822954,1682.822954,1682.822954,1682.822954,1682.822954,
   **   ~~~   ** Supply-to-demand interface deck 1 energy check value iteration history trace: 2761.719974,2761.719974,2761.719974,2761.719974,2761.719974,2761.719973,2761.719973,2761.719973,2761.719973,2761.719973,
   ** Warning ** SimHVAC: Maximum iterations (20) exceeded for all HVAC loops, at ANNUAL, 03/29 09:00 - 09:03
   **   ~~~   ** The solution for one or more of the Air Loop HVAC systems did not appear to converge
   **   ~~~   ** Air System Named = CENTRAL SYSTEM did not converge for mass flow rate
   **   ~~~   ** Check values should be zero. Most Recent values listed first.
   **   ~~~   ** Demand-to-Supply interface mass flow rate check value iteration history trace: 6.117731E-002,6.117731E-002,6.117731E-002,6.117731E-002,6.117731E-002,6.117731E-002,6.117731E-002,6.117731E-002,6.117731E-002,6.117731E-002,
   **   ~~~   ** Supply-to-demand interface deck 1 mass flow rate check value iteration history trace: 6.117731E-002,6.117731E-002,6.117731E-002,6.117731E-002,6.117731E-002,6.117731E-002,6.117731E-002,6.117731E-002,6.117731E-002,6.117731E-002,
   **   ~~~   ** Air System Named = CENTRAL SYSTEM did not converge for energy
   **   ~~~   ** Check values should be zero. Most Recent values listed first.
   **   ~~~   ** Demand-to-Supply interface energy check value iteration history trace: 1212.337475,1212.337475,1212.337475,1212.337474,1212.337474,1212.337474,1212.337474,1212.337474,1212.337474,1212.337474,
   **   ~~~   ** Supply-to-demand interface deck 1 energy check value iteration history trace: 2205.474910,2205.474910,2205.474910,2205.474909,2205.474909,2205.474909,2205.474909,2205.474909,2205.474909,2205.474909,
   ** Warning ** SimHVAC: Maximum iterations (20) exceeded for all HVAC loops, at ANNUAL, 03/31 08:17 - 08:18
   **   ~~~   ** The solution for one or more of the Air Loop HVAC systems did not appear to converge
   **   ~~~   ** Air System Named = CENTRAL SYSTEM did not converge for mass flow rate
   **   ~~~   ** Check values should be zero. Most Recent values listed first.
   **   ~~~   ** Demand-to-Supply interface mass flow rate check value iteration history trace: 6.194098E-002,6.194098E-002,6.194098E-002,6.194098E-002,6.194098E-002,6.194098E-002,6.194098E-002,6.194098E-002,6.194098E-002,6.194098E-002,
   **   ~~~   ** Supply-to-demand interface deck 1 mass flow rate check value iteration history trace: 6.194098E-002,6.194098E-002,6.194098E-002,6.194098E-002,6.194098E-002,6.194098E-002,6.194098E-002,6.194098E-002,6.194098E-002,6.194098E-002,
   **   ~~~   ** Air System Named = CENTRAL SYSTEM did not converge for energy
   **   ~~~   ** Check values should be zero. Most Recent values listed first.
   **   ~~~   ** Demand-to-Supply interface energy check value iteration history trace: 1225.867746,1225.867746,1225.867746,1225.867746,1225.867746,1225.867746,1225.867746,1225.867746,1225.867746,1225.867746,
   **   ~~~   ** Supply-to-demand interface deck 1 energy check value iteration history trace: 2214.707724,2214.707724,2214.707724,2214.707724,2214.707724,2214.707724,2214.707724,2214.707724,2214.707724,2214.707724,
   ** Warning ** SimHVAC: Maximum iterations (20) exceeded for all HVAC loops, at ANNUAL, 04/03 00:45 - 01:00
   **   ~~~   ** The solution for one or more of the Air Loop HVAC systems did not appear to converge
   **   ~~~   ** Air System Named = CENTRAL SYSTEM did not converge for mass flow rate
   **   ~~~   ** Check values should be zero. Most Recent values listed first.
   **   ~~~   ** Demand-to-Supply interface mass flow rate check value iteration history trace: 5.685144E-002,5.685144E-002,5.685144E-002,5.685144E-002,5.685144E-002,5.685144E-002,5.685144E-002,5.685144E-002,5.685144E-002,5.685144E-002,
   **   ~~~   ** Supply-to-demand interface deck 1 mass flow rate check value iteration history trace: 5.685144E-002,5.685144E-002,5.685144E-002,5.685144E-002,5.685144E-002,5.685144E-002,5.685144E-002,5.685144E-002,5.685144E-002,5.685144E-002,
   **   ~~~   ** Air System Named = CENTRAL SYSTEM did not converge for energy
   **   ~~~   ** Check values should be zero. Most Recent values listed first.
   **   ~~~   ** Demand-to-Supply interface energy check value iteration history trace: 1063.954851,1063.954851,1063.954851,1063.954851,1063.954851,1063.954851,1063.954851,1063.954851,1063.954851,1063.954851,
   **   ~~~   ** Supply-to-demand interface deck 1 energy check value iteration history trace: 1910.093586,1910.093586,1910.093586,1910.093586,1910.093586,1910.093586,1910.093586,1910.093586,1910.093586,1910.093586,
   ** Warning ** SimHVAC: Maximum iterations (20) exceeded for all HVAC loops, at ANNUAL, 04/12 09:30 - 09:32
   **   ~~~   ** The solution for one or more of the Air Loop HVAC systems did not appear to converge
   **   ~~~   ** Air System Named = CENTRAL SYSTEM did not converge for mass flow rate
   **   ~~~   ** Check values should be zero. Most Recent values listed first.
   **   ~~~   ** Demand-to-Supply interface mass flow rate check value iteration history trace: 5.846748E-002,5.846748E-002,5.846748E-002,5.846748E-002,5.846748E-002,5.846748E-002,5.846748E-002,5.846748E-002,5.846748E-002,5.846748E-002,
   **   ~~~   ** Supply-to-demand interface deck 1 mass flow rate check value iteration history trace: 5.846748E-002,5.846748E-002,5.846748E-002,5.846748E-002,5.846748E-002,5.846748E-002,5.846748E-002,5.846748E-002,5.846748E-002,5.846748E-002,
   **   ~~~   ** Air System Named = CENTRAL SYSTEM did not converge for energy
   **   ~~~   ** Check values should be zero. Most Recent values listed first.
   **   ~~~   ** Demand-to-Supply interface energy check value iteration history trace: 1158.646481,1158.646481,1158.646481,1158.646481,1158.646481,1158.646481,1158.646481,1158.646481,1158.646481,1158.646480,
   **   ~~~   ** Supply-to-demand interface deck 1 energy check value iteration history trace: 2153.838216,2153.838216,2153.838215,2153.838215,2153.838215,2153.838215,2153.838215,2153.838215,2153.838215,2153.838215,
   ** Warning ** SimHVAC: Maximum iterations (20) exceeded for all HVAC loops, at ANNUAL, 04/14 09:45 - 09:52
   **   ~~~   ** The solution for one or more of the Air Loop HVAC systems did not appear to converge
   **   ~~~   ** Air System Named = CENTRAL SYSTEM did not converge for mass flow rate
   **   ~~~   ** Check values should be zero. Most Recent values listed first.
   **   ~~~   ** Demand-to-Supply interface mass flow rate check value iteration history trace: 5.215110E-002,5.215110E-002,5.215110E-002,5.215110E-002,5.215110E-002,5.215110E-002,5.215110E-002,5.215110E-002,5.215110E-002,5.215110E-002,
   **   ~~~   ** Supply-to-demand interface deck 1 mass flow rate check value iteration history trace: 5.215110E-002,5.215110E-002,5.215110E-002,5.215110E-002,5.215110E-002,5.215110E-002,5.215110E-002,5.215110E-002,5.215110E-002,5.215110E-002,
   **   ~~~   ** Air System Named = CENTRAL SYSTEM did not converge for energy
   **   ~~~   ** Check values should be zero. Most Recent values listed first.
   **   ~~~   ** Demand-to-Supply interface energy check value iteration history trace: 1033.458885,1033.458885,1033.458885,1033.458885,1033.458885,1033.458885,1033.458885,1033.458884,1033.458884,1033.458884,
   **   ~~~   ** Supply-to-demand interface deck 1 energy check value iteration history trace: 1917.393811,1917.393811,1917.393811,1917.393811,1917.393811,1917.393811,1917.393811,1917.393810,1917.393810,1917.393810,
   ** Warning ** SimHVAC: Maximum iterations (20) exceeded for all HVAC loops, at ANNUAL, 04/19 08:18 - 08:20
   **   ~~~   ** The solution for one or more of the Air Loop HVAC systems did not appear to converge
   **   ~~~   ** Air System Named = CENTRAL SYSTEM did not converge for mass flow rate
   **   ~~~   ** Check values should be zero. Most Recent values listed first.
   **   ~~~   ** Demand-to-Supply interface mass flow rate check value iteration history trace: 5.707351E-002,5.707351E-002,5.707351E-002,5.707351E-002,5.707351E-002,5.707351E-002,5.707351E-002,5.707351E-002,5.707351E-002,5.707351E-002,
   **   ~~~   ** Supply-to-demand interface deck 1 mass flow rate check value iteration history trace: 5.707351E-002,5.707351E-002,5.707351E-002,5.707351E-002,5.707351E-002,5.707351E-002,5.707351E-002,5.707351E-002,5.707351E-002,5.707351E-002,
   **   ~~~   ** Air System Named = CENTRAL SYSTEM did not converge for energy
   **   ~~~   ** Check values should be zero. Most Recent values listed first.
   **   ~~~   ** Demand-to-Supply interface energy check value iteration history trace: 1129.846597,1129.846597,1129.846597,1129.846597,1129.846597,1129.846597,1129.846597,1129.846597,1129.846597,1129.846597,
   **   ~~~   ** Supply-to-demand interface deck 1 energy check value iteration history trace: 2067.734832,2067.734832,2067.734832,2067.734832,2067.734832,2067.734832,2067.734832,2067.734832,2067.734832,2067.734832,
   ** Warning ** SimHVAC: Maximum iterations (20) exceeded for all HVAC loops, at ANNUAL, 04/23 00:30 - 00:45
   **   ~~~   ** The solution for one or more of the Air Loop HVAC systems did not appear to converge
   **   ~~~   ** Air System Named = CENTRAL SYSTEM did not converge for mass flow rate
   **   ~~~   ** Check values should be zero. Most Recent values listed first.
   **   ~~~   ** Demand-to-Supply interface mass flow rate check value iteration history trace: 1.847979E-002,1.847979E-002,1.847979E-002,1.847979E-002,1.847979E-002,1.847979E-002,1.847979E-002,1.847979E-002,1.847979E-002,1.847979E-002,
   **   ~~~   ** Supply-to-demand interface deck 1 mass flow rate check value iteration history trace: 1.847979E-002,1.847979E-002,1.847979E-002,1.847979E-002,1.847979E-002,1.847979E-002,1.847979E-002,1.847979E-002,1.847979E-002,1.847979E-002,
   **   ~~~   ** Air System Named = CENTRAL SYSTEM did not converge for energy
   **   ~~~   ** Check values should be zero. Most Recent values listed first.
   **   ~~~   ** Demand-to-Supply interface energy check value iteration history trace: 343.928024,343.928024,343.928024,343.928024,343.928024,343.928024,343.928024,343.928024,343.928024,343.928024,
   **   ~~~   ** Supply-to-demand interface deck 1 energy check value iteration history trace: 571.925839,571.925839,571.925839,571.925839,571.925839,571.925839,571.925839,571.925839,571.925839,571.925839,
   ** Warning ** SimHVAC: Maximum iterations (20) exceeded for all HVAC loops, at ANNUAL, 06/08 06:48 - 06:50
   **   ~~~   ** The solution for one or more of the Air Loop HVAC systems did not appear to converge
   **   ~~~   ** Air System Named = CENTRAL SYSTEM did not converge for mass flow rate
   **   ~~~   ** Check values should be zero. Most Recent values listed first.
   **   ~~~   ** Demand-to-Supply interface mass flow rate check value iteration history trace: 0.254269,0.254269,0.254269,0.254269,0.254269,0.254269,0.254269,0.254269,0.254269,0.254269,
   **   ~~~   ** Supply-to-demand interface deck 1 mass flow rate check value iteration history trace: 0.254269,0.254269,0.254269,0.254269,0.254269,0.254269,0.254269,0.254269,0.254269,0.254269,
   **   ~~~   ** Air System Named = CENTRAL SYSTEM did not converge for energy
   **   ~~~   ** Check values should be zero. Most Recent values listed first.
   **   ~~~   ** Demand-to-Supply interface energy check value iteration history trace: 6015.748681,6015.748682,6015.748683,6015.748683,6015.748684,6015.748685,6015.748686,6015.748686,6015.748687,6015.748688,
   **   ~~~   ** Supply-to-demand interface deck 1 energy check value iteration history trace: 2563.754191,2563.754191,2563.754192,2563.754192,2563.754192,2563.754193,2563.754193,2563.754193,2563.754193,2563.754194,
   ************* Simulation Error Summary *************
   ** Warning ** The following Report Variables were requested but not generated -- check.rdd file
   **   ~~~   ** Either the IDF did not contain these elements, the variable name is misspelled,
   **   ~~~   ** or the requested variable is an advanced output which requires Output : Diagnostics, DisplayAdvancedReportVariables;
   ************* Key=*, VarName=BASEBOARD TOTAL HEATING ENERGY, Frequency=
   ************* Key=*, VarName=WATER HEATER NATURALGAS ENERGY, Frequency=
   ************* Key=*, VarName=COOLING COIL TOTAL HEATING ENERGY, Frequency=
   ************* There are 34 unused schedules in input.
   ************* There are 388 unused week schedules in input.
   ************* There are 397 unused day schedules in input.
   ************* Use Output:Diagnostics,DisplayUnusedSchedules; to see them.
   *************
   ************* ===== Recurring Error Summary =====
   ************* The following recurring error messages occurred.
   *************
   *************  ** Warning ** "TOTAL HOT WATER LOAD" - Target water temperature should be less than or equal to the hot water temperature error continues...
   *************  **   ~~~   **   This error occurred 123221 total times;
   *************  **   ~~~   **   during Warmup 0 times;
   *************  **   ~~~   **   during Sizing 0 times.
   *************  **   ~~~   **   Max=9.750154  Min=1.773027E-004
   *************
   *************  ** Warning ** Temperature out of range [-100. to 200.] (PsyPsatFnTemp)
   *************  **   ~~~   **   This error occurred 1 total times;
   *************  **   ~~~   **   during Warmup 0 times;
   *************  **   ~~~   **   during Sizing 0 times.
   *************  **   ~~~   **   Max=-106.528225 C  Min=-106.528225 C
   *************
   *************  ** Warning ** SimHVAC: Exceeding Maximum iterations for all HVAC loops, during ANNUAL continues
   *************  **   ~~~   **   This error occurred 16 total times;
   *************  **   ~~~   **   during Warmup 0 times;
   *************  **   ~~~   **   during Sizing 0 times.
   *************
   *************
   ************* ===== Final Error Summary =====
   ************* The following error categories occurred.  Consider correcting or noting.
   ************* Loads Initialization did not Converge
   ************* ..1) very high thermal mass such as very thick concrete (solution: increase max number of warmup
   ************* ..   days in the BUILDING object);
   ************* ..2) moderate mass and inadequate space conditioning such that the building keeps getting warmer
   ************* ..   and warmer on successive days (solution: add HVAC, check building thermal properties,
   ************* ..   check if infiltration is included, make sure HVAC properly controlled);
   ************* ..3) a soil layer modeled below the concrete slab - (solution remove this layer and read about
   ************* ..   ground temperatures in the Auxiliary Programs document).
   ************* ..4) unreasonable (too small) limits in the BUILDING object for temperature (.4 default) or
   ************* ..   loads tolerances (.04 default)
   ************* Nominally Unused Constructions
   ************* ..The nominally unused constructions warning is provided to alert you to potential conditions that can cause
   ************* ..extra time during simulation. Each construction is calculated by the algorithm indicated in the HeatBalanceAlgorithm
   ************* ..object. You may remove the constructions indicated (when you use the DisplayExtraWarnings option).
   *************
   ************* EnergyPlus Warmup Error Summary. During Warmup: 1 Warning; 1 Severe Errors.
   ************* EnergyPlus Sizing Error Summary. During Sizing: 4 Warning; 0 Severe Errors.
   ************* EnergyPlus Completed Successfully-- 123270 Warning; 1 Severe Errors; Elapsed Time=00hr 01min 43.98sec
