Program Version,EnergyPlus, Version 22.2.0-c249759bad, YMD=2023.09.01 20:06,
   ************* Beginning Zone Sizing Calculations
   ** Warning ** ProcessScheduleInput: Schedule:Constant="ALWAYS ON DISCRETE", Schedule Type Limits Name="ONOFF" not found -- will not be validated
   ** Warning ** Foundation:Kiva="KIVA FOUNDATION", no Interior Horizontal Insulation Material Name defined
   **   ~~~   ** Interior Horizontal Insulation Depth will not be used.
   ** Warning ** CheckUsedConstructions: There are 15 nominally unused constructions in input.
   **   ~~~   ** Each Unused construction is shown.
   ************* Construction=INTERIOR FLOOR
   ************* Construction=INTERIOR WINDOW
   ************* Construction=EXTERIOR DOOR
   ************* Construction=INTERIOR DOOR
   ************* Construction=GABLE CONSTRUCTION
   ************* Construction=CRAWL_FLOOR
   ************* Construction=INSULATED PIPE
   ************* Construction=PLAIN PIPE
   ************* Construction=TDD PIPE
   ************* Construction=TDD DOME
   ************* Construction=TDD DIFFUSER
   ************* Construction=CRAWL WALL
   ************* Construction=CEILING-FLOOR-LAYER
   ************* Construction=SLAB CONSTRUCTION W FULL R10 INSULATION
   ************* Construction=SLAB CONSTRUCTION W FULL R5 INSULATION
   ** Warning ** GetDXCoils: Coil:Heating:DX:SingleSpeed="DX_HEATING_COIL" curve values
   **   ~~~   ** ... Defrost Energy Input Ratio Function of Temperature Curve Name = DEFROSTEIR output is not equal to 1.0 (+ or - 10%) at rated conditions.
   **   ~~~   ** ... Curve output at rated conditions = 0.152
   ************* Beginning System Sizing Calculations
   ************* Beginning Plant Sizing Calculations
   ** Warning ** Coil:WaterHeating:AirToWaterHeatPump:Wrapped "HEAT PUMP WATER HEATER EVAPORATOR": Rated air volume flow rate per watt of rated total water heating capacity is out of range
   **   ~~~   ** Min Rated Vol Flow Per Watt=[4.027E-005], Rated Vol Flow Per Watt=[1.510E-004], Max Rated Vol Flow Per Watt=[8.056E-005]. See Input-Output Reference Manual for valid range.
   ************* SizeFan: : Potential issue with equipment sizing for Fan:OnOff HEAT PUMP WATER HEATER FAN
   **   ~~~   ** User-Specified Maximum Flow Rate [m3/s] = 0.22653
   **   ~~~   ** differs from Design Size Maximum Flow Rate [m3/s] = 7.55250E-002
   **   ~~~   ** This may, or may not, indicate mismatched component sizes.
   **   ~~~   ** Verify that the value entered is intended and is consistent with other components.
   ** Warning ** Water heater = WATER HEATER TANK:  Recovery Efficiency and Energy Factor could not be calculated during the test for standard ratings
   **   ~~~   ** Setpoint was never recovered and/or heater never turned on
   ** Warning ** Check input. Pump nominal power or motor efficiency is set to 0, for pump=MAINS PRESSURE
   ** Warning ** Output:Meter: invalid Key Name="ELECTRIC_RANGE:INTERIOREQUIPMENT:ELECTRICITY" - not found.
   ** Warning ** Output:Meter: invalid Key Name="ELECTRIC_DRYER:INTERIOREQUIPMENT:ELECTRICITY" - not found.
   ** Warning ** Output:Meter: invalid Key Name="HEATRECOVERY:ELECTRICITY" - not found.
   ** Warning ** Output:Meter: invalid Key Name="HEATING:NATURALGAS" - not found.
   ** Warning ** Output:Meter: invalid Key Name="WATERSYSTEMS:NATURALGAS" - not found.
   ** Warning ** Output:Meter: invalid Key Name="PROPANE:FACILITY" - not found.
   ** Warning ** Output:Meter: invalid Key Name="HEATING:PROPANE" - not found.
   ************* Testing Individual Branch Integrity
   ************* All Branches passed integrity testing
   ************* Testing Individual Supply Air Path Integrity
   ************* All Supply Air Paths passed integrity testing
   ************* Testing Individual Return Air Path Integrity
   ************* All Return Air Paths passed integrity testing
   ************* No node connection errors were found.
   ************* Beginning Simulation
   ** Warning ** AirflowNetwork::Solver::validate_distribution: Heat pump water heater is simulated along with an AirflowNetwork but is not included in the AirflowNetwork.
   ** Warning ** CalcEquipmentFlowRates: "TOTAL HOT WATER LOAD" - Target water temperature is greater than the hot water temperature by (4.54 C)
   **   ~~~   **  Environment=EXTREME_WINTER, at Simulation time=01/08 07:00 - 07:15
   **   ~~~   ** ...target water temperature     = 53.33 C
   **   ~~~   ** ...hot water temperature        = 48.79 C
   **   ~~~   ** ...Target water temperature should be less than or equal to the hot water temperature. Verify temperature setpoints and schedules.
   ** Warning ** SimHVAC: Maximum iterations (20) exceeded for all HVAC loops, at ANNUAL, 01/09 13:30 - 13:45
   **   ~~~   ** The solution for one or more of the Air Loop HVAC systems did not appear to converge
   **   ~~~   ** Air System Named = CENTRAL SYSTEM did not converge for mass flow rate
   **   ~~~   ** Check values should be zero. Most Recent values listed first.
   **   ~~~   ** Demand-to-Supply interface mass flow rate check value iteration history trace: 6.905076E-002,6.905076E-002,6.905076E-002,6.905076E-002,6.905076E-002,6.905076E-002,6.905076E-002,6.905076E-002,6.905076E-002,6.905076E-002,
   **   ~~~   ** Supply-to-demand interface deck 1 mass flow rate check value iteration history trace: 6.905076E-002,6.905076E-002,6.905076E-002,6.905076E-002,6.905076E-002,6.905076E-002,6.905076E-002,6.905076E-002,6.905076E-002,6.905076E-002,
   **   ~~~   ** Air System Named = CENTRAL SYSTEM did not converge for energy
   **   ~~~   ** Check values should be zero. Most Recent values listed first.
   **   ~~~   ** Demand-to-Supply interface energy check value iteration history trace: 1368.024856,1368.024856,1368.024856,1368.024856,1368.024856,1368.024856,1368.024856,1368.024855,1368.024855,1368.024855,
   **   ~~~   ** Supply-to-demand interface deck 1 energy check value iteration history trace: 2048.453047,2048.453046,2048.453046,2048.453046,2048.453046,2048.453046,2048.453046,2048.453046,2048.453046,2048.453046,
   ** Warning ** SimHVAC: Maximum iterations (20) exceeded for all HVAC loops, at ANNUAL, 01/10 14:00 - 14:15
   **   ~~~   ** The solution for one or more of the Air Loop HVAC systems did not appear to converge
   **   ~~~   ** Air System Named = CENTRAL SYSTEM did not converge for mass flow rate
   **   ~~~   ** Check values should be zero. Most Recent values listed first.
   **   ~~~   ** Demand-to-Supply interface mass flow rate check value iteration history trace: 7.993360E-002,7.993360E-002,7.993360E-002,7.993360E-002,7.993360E-002,7.993360E-002,7.993360E-002,7.993360E-002,7.993360E-002,7.993360E-002,
   **   ~~~   ** Supply-to-demand interface deck 1 mass flow rate check value iteration history trace: 7.993360E-002,7.993360E-002,7.993360E-002,7.993360E-002,7.993360E-002,7.993360E-002,7.993360E-002,7.993360E-002,7.993360E-002,7.993360E-002,
   **   ~~~   ** Air System Named = CENTRAL SYSTEM did not converge for energy
   **   ~~~   ** Check values should be zero. Most Recent values listed first.
   **   ~~~   ** Demand-to-Supply interface energy check value iteration history trace: 1586.253350,1586.253350,1586.253350,1586.253349,1586.253349,1586.253349,1586.253349,1586.253349,1586.253349,1586.253349,
   **   ~~~   ** Supply-to-demand interface deck 1 energy check value iteration history trace: 2367.734422,2367.734422,2367.734422,2367.734422,2367.734421,2367.734421,2367.734421,2367.734421,2367.734421,2367.734421,
   ** Warning ** SimHVAC: Maximum iterations (20) exceeded for all HVAC loops, at ANNUAL, 01/14 21:45 - 22:00
   **   ~~~   ** The solution for one or more of the Air Loop HVAC systems did not appear to converge
   **   ~~~   ** Air System Named = CENTRAL SYSTEM did not converge for mass flow rate
   **   ~~~   ** Check values should be zero. Most Recent values listed first.
   **   ~~~   ** Demand-to-Supply interface mass flow rate check value iteration history trace: 0.106139,0.106139,0.106139,0.106139,0.106139,0.106139,0.106139,0.106139,0.106139,0.106139,
   **   ~~~   ** Supply-to-demand interface deck 1 mass flow rate check value iteration history trace: 0.106139,0.106139,0.106139,0.106139,0.106139,0.106139,0.106139,0.106139,0.106139,0.106139,
   **   ~~~   ** Air System Named = CENTRAL SYSTEM did not converge for energy
   **   ~~~   ** Check values should be zero. Most Recent values listed first.
   **   ~~~   ** Demand-to-Supply interface energy check value iteration history trace: 2097.105549,2097.105549,2097.105549,2097.105548,2097.105548,2097.105548,2097.105548,2097.105548,2097.105548,2097.105548,
   **   ~~~   ** Supply-to-demand interface deck 1 energy check value iteration history trace: 3185.096730,3185.096730,3185.096730,3185.096730,3185.096729,3185.096729,3185.096729,3185.096729,3185.096729,3185.096728,
   ** Warning ** SimHVAC: Maximum iterations (20) exceeded for all HVAC loops, at ANNUAL, 01/20 10:50 - 10:55
   **   ~~~   ** The solution for one or more of the Air Loop HVAC systems did not appear to converge
   **   ~~~   ** Air System Named = CENTRAL SYSTEM did not converge for mass flow rate
   **   ~~~   ** Check values should be zero. Most Recent values listed first.
   **   ~~~   ** Demand-to-Supply interface mass flow rate check value iteration history trace: 0.100258,0.100258,0.100258,0.100258,0.100258,0.100258,0.100258,0.100258,0.100258,0.100258,
   **   ~~~   ** Supply-to-demand interface deck 1 mass flow rate check value iteration history trace: 0.100258,0.100258,0.100258,0.100258,0.100258,0.100258,0.100258,0.100258,0.100258,0.100258,
   **   ~~~   ** Air System Named = CENTRAL SYSTEM did not converge for energy
   **   ~~~   ** Check values should be zero. Most Recent values listed first.
   **   ~~~   ** Demand-to-Supply interface energy check value iteration history trace: 1986.705779,1986.705779,1986.705778,1986.705778,1986.705778,1986.705778,1986.705778,1986.705778,1986.705778,1986.705777,
   **   ~~~   ** Supply-to-demand interface deck 1 energy check value iteration history trace: 3099.152168,3099.152168,3099.152168,3099.152168,3099.152167,3099.152167,3099.152167,3099.152167,3099.152167,3099.152166,
   ** Warning ** SimHVAC: Maximum iterations (20) exceeded for all HVAC loops, at ANNUAL, 02/01 23:35 - 23:40
   **   ~~~   ** The solution for one or more of the Air Loop HVAC systems did not appear to converge
   **   ~~~   ** Air System Named = CENTRAL SYSTEM did not converge for mass flow rate
   **   ~~~   ** Check values should be zero. Most Recent values listed first.
   **   ~~~   ** Demand-to-Supply interface mass flow rate check value iteration history trace: 8.965932E-002,8.965932E-002,8.965932E-002,8.965932E-002,8.965932E-002,8.965932E-002,8.965932E-002,8.965932E-002,8.965932E-002,8.965932E-002,
   **   ~~~   ** Supply-to-demand interface deck 1 mass flow rate check value iteration history trace: 8.965932E-002,8.965932E-002,8.965932E-002,8.965932E-002,8.965932E-002,8.965932E-002,8.965932E-002,8.965932E-002,8.965932E-002,8.965932E-002,
   **   ~~~   ** Air System Named = CENTRAL SYSTEM did not converge for energy
   **   ~~~   ** Check values should be zero. Most Recent values listed first.
   **   ~~~   ** Demand-to-Supply interface energy check value iteration history trace: 1682.255057,1682.255057,1682.255056,1682.255056,1682.255056,1682.255056,1682.255056,1682.255056,1682.255056,1682.255056,
   **   ~~~   ** Supply-to-demand interface deck 1 energy check value iteration history trace: 2598.153270,2598.153270,2598.153270,2598.153270,2598.153270,2598.153269,2598.153269,2598.153269,2598.153269,2598.153269,
   ** Warning ** SimHVAC: Maximum iterations (20) exceeded for all HVAC loops, at ANNUAL, 02/12 07:15 - 07:30
   **   ~~~   ** The solution for one or more of the Air Loop HVAC systems did not appear to converge
   **   ~~~   ** Air System Named = CENTRAL SYSTEM did not converge for mass flow rate
   **   ~~~   ** Check values should be zero. Most Recent values listed first.
   **   ~~~   ** Demand-to-Supply interface mass flow rate check value iteration history trace: 5.255564E-002,5.255564E-002,5.255564E-002,5.255564E-002,5.255564E-002,5.255564E-002,5.255564E-002,5.255564E-002,5.255564E-002,5.255564E-002,
   **   ~~~   ** Supply-to-demand interface deck 1 mass flow rate check value iteration history trace: 5.255564E-002,5.255564E-002,5.255564E-002,5.255564E-002,5.255564E-002,5.255564E-002,5.255564E-002,5.255564E-002,5.255564E-002,5.255564E-002,
   **   ~~~   ** Air System Named = CENTRAL SYSTEM did not converge for energy
   **   ~~~   ** Check values should be zero. Most Recent values listed first.
   **   ~~~   ** Demand-to-Supply interface energy check value iteration history trace: 1042.453688,1042.453688,1042.453688,1042.453687,1042.453687,1042.453687,1042.453687,1042.453687,1042.453687,1042.453687,
   **   ~~~   ** Supply-to-demand interface deck 1 energy check value iteration history trace: 1865.882509,1865.882509,1865.882509,1865.882509,1865.882509,1865.882508,1865.882508,1865.882508,1865.882508,1865.882508,
   ** Warning ** SimHVAC: Maximum iterations (20) exceeded for all HVAC loops, at ANNUAL, 02/12 10:30 - 10:45
   **   ~~~   ** The solution for one or more of the Air Loop HVAC systems did not appear to converge
   **   ~~~   ** Air System Named = CENTRAL SYSTEM did not converge for mass flow rate
   **   ~~~   ** Check values should be zero. Most Recent values listed first.
   **   ~~~   ** Demand-to-Supply interface mass flow rate check value iteration history trace: 6.747220E-002,6.747220E-002,6.747220E-002,6.747220E-002,6.747220E-002,6.747220E-002,6.747220E-002,6.747220E-002,6.747220E-002,6.747220E-002,
   **   ~~~   ** Supply-to-demand interface deck 1 mass flow rate check value iteration history trace: 6.747220E-002,6.747220E-002,6.747220E-002,6.747220E-002,6.747220E-002,6.747220E-002,6.747220E-002,6.747220E-002,6.747220E-002,6.747220E-002,
   **   ~~~   ** Air System Named = CENTRAL SYSTEM did not converge for energy
   **   ~~~   ** Check values should be zero. Most Recent values listed first.
   **   ~~~   ** Demand-to-Supply interface energy check value iteration history trace: 1328.055167,1328.055167,1328.055167,1328.055167,1328.055167,1328.055167,1328.055167,1328.055167,1328.055167,1328.055167,
   **   ~~~   ** Supply-to-demand interface deck 1 energy check value iteration history trace: 2385.037082,2385.037082,2385.037082,2385.037082,2385.037082,2385.037082,2385.037082,2385.037081,2385.037081,2385.037081,
   ** Warning ** SimHVAC: Maximum iterations (20) exceeded for all HVAC loops, at ANNUAL, 02/12 11:45 - 12:00
   **   ~~~   ** The solution for one or more of the Air Loop HVAC systems did not appear to converge
   **   ~~~   ** Air System Named = CENTRAL SYSTEM did not converge for mass flow rate
   **   ~~~   ** Check values should be zero. Most Recent values listed first.
   **   ~~~   ** Demand-to-Supply interface mass flow rate check value iteration history trace: 6.411065E-002,6.411065E-002,6.411065E-002,6.411065E-002,6.411065E-002,6.411065E-002,6.411065E-002,6.411065E-002,6.411065E-002,6.411065E-002,
   **   ~~~   ** Supply-to-demand interface deck 1 mass flow rate check value iteration history trace: 6.411065E-002,6.411065E-002,6.411065E-002,6.411065E-002,6.411065E-002,6.411065E-002,6.411065E-002,6.411065E-002,6.411065E-002,6.411065E-002,
   **   ~~~   ** Air System Named = CENTRAL SYSTEM did not converge for energy
   **   ~~~   ** Check values should be zero. Most Recent values listed first.
   **   ~~~   ** Demand-to-Supply interface energy check value iteration history trace: 1258.649861,1258.649860,1258.649860,1258.649860,1258.649860,1258.649860,1258.649859,1258.649859,1258.649859,1258.649859,
   **   ~~~   ** Supply-to-demand interface deck 1 energy check value iteration history trace: 2248.810990,2248.810990,2248.810989,2248.810989,2248.810989,2248.810988,2248.810988,2248.810988,2248.810987,2248.810987,
   ** Warning ** SimHVAC: Maximum iterations (20) exceeded for all HVAC loops, at ANNUAL, 03/14 09:30 - 09:32
   **   ~~~   ** The solution for one or more of the Air Loop HVAC systems did not appear to converge
   **   ~~~   ** Air System Named = CENTRAL SYSTEM did not converge for mass flow rate
   **   ~~~   ** Check values should be zero. Most Recent values listed first.
   **   ~~~   ** Demand-to-Supply interface mass flow rate check value iteration history trace: 0.102161,0.102161,0.102161,0.102161,0.102161,0.102161,0.102161,0.102161,0.102161,0.102161,
   **   ~~~   ** Supply-to-demand interface deck 1 mass flow rate check value iteration history trace: 0.102161,0.102161,0.102161,0.102161,0.102161,0.102161,0.102161,0.102161,0.102161,0.102161,
   **   ~~~   ** Air System Named = CENTRAL SYSTEM did not converge for energy
   **   ~~~   ** Check values should be zero. Most Recent values listed first.
   **   ~~~   ** Demand-to-Supply interface energy check value iteration history trace: 2024.479160,2024.479159,2024.479159,2024.479159,2024.479159,2024.479159,2024.479159,2024.479159,2024.479159,2024.479158,
   **   ~~~   ** Supply-to-demand interface deck 1 energy check value iteration history trace: 3174.634686,3174.634685,3174.634685,3174.634685,3174.634685,3174.634685,3174.634684,3174.634684,3174.634684,3174.634684,
   ** Warning ** SimHVAC: Maximum iterations (20) exceeded for all HVAC loops, at ANNUAL, 03/28 12:30 - 12:45
   **   ~~~   ** The solution for one or more of the Air Loop HVAC systems did not appear to converge
   **   ~~~   ** Air System Named = CENTRAL SYSTEM did not converge for mass flow rate
   **   ~~~   ** Check values should be zero. Most Recent values listed first.
   **   ~~~   ** Demand-to-Supply interface mass flow rate check value iteration history trace: 6.800012E-002,6.800012E-002,6.800012E-002,6.800012E-002,6.800012E-002,6.800012E-002,6.800012E-002,6.800012E-002,6.800012E-002,6.800012E-002,
   **   ~~~   ** Supply-to-demand interface deck 1 mass flow rate check value iteration history trace: 6.800012E-002,6.800012E-002,6.800012E-002,6.800012E-002,6.800012E-002,6.800012E-002,6.800012E-002,6.800012E-002,6.800012E-002,6.800012E-002,
   **   ~~~   ** Air System Named = CENTRAL SYSTEM did not converge for energy
   **   ~~~   ** Check values should be zero. Most Recent values listed first.
   **   ~~~   ** Demand-to-Supply interface energy check value iteration history trace: 1347.516943,1347.516943,1347.516943,1347.516943,1347.516943,1347.516942,1347.516942,1347.516942,1347.516942,1347.516942,
   **   ~~~   ** Supply-to-demand interface deck 1 energy check value iteration history trace: 2322.076878,2322.076878,2322.076878,2322.076878,2322.076878,2322.076878,2322.076878,2322.076878,2322.076878,2322.076878,
   ** Warning ** SimHVAC: Maximum iterations (20) exceeded for all HVAC loops, at ANNUAL, 03/30 11:00 - 11:15
   **   ~~~   ** The solution for one or more of the Air Loop HVAC systems did not appear to converge
   **   ~~~   ** Air System Named = CENTRAL SYSTEM did not converge for mass flow rate
   **   ~~~   ** Check values should be zero. Most Recent values listed first.
   **   ~~~   ** Demand-to-Supply interface mass flow rate check value iteration history trace: 7.493566E-002,7.493566E-002,7.493566E-002,7.493566E-002,7.493566E-002,7.493566E-002,7.493566E-002,7.493566E-002,7.493566E-002,7.493566E-002,
   **   ~~~   ** Supply-to-demand interface deck 1 mass flow rate check value iteration history trace: 7.493566E-002,7.493566E-002,7.493566E-002,7.493566E-002,7.493566E-002,7.493566E-002,7.493566E-002,7.493566E-002,7.493566E-002,7.493566E-002,
   **   ~~~   ** Air System Named = CENTRAL SYSTEM did not converge for energy
   **   ~~~   ** Check values should be zero. Most Recent values listed first.
   **   ~~~   ** Demand-to-Supply interface energy check value iteration history trace: 1484.834098,1484.834098,1484.834098,1484.834098,1484.834098,1484.834097,1484.834097,1484.834097,1484.834097,1484.834097,
   **   ~~~   ** Supply-to-demand interface deck 1 energy check value iteration history trace: 2481.910630,2481.910630,2481.910630,2481.910630,2481.910629,2481.910629,2481.910629,2481.910629,2481.910629,2481.910629,
   ** Warning ** SimHVAC: Maximum iterations (20) exceeded for all HVAC loops, at ANNUAL, 04/04 08:45 - 08:49
   **   ~~~   ** The solution for one or more of the Air Loop HVAC systems did not appear to converge
   **   ~~~   ** Air System Named = CENTRAL SYSTEM did not converge for mass flow rate
   **   ~~~   ** Check values should be zero. Most Recent values listed first.
   **   ~~~   ** Demand-to-Supply interface mass flow rate check value iteration history trace: 8.760096E-002,8.760096E-002,8.760096E-002,8.760096E-002,8.760096E-002,8.760096E-002,8.760096E-002,8.760096E-002,8.760096E-002,8.760096E-002,
   **   ~~~   ** Supply-to-demand interface deck 1 mass flow rate check value iteration history trace: 8.760096E-002,8.760096E-002,8.760096E-002,8.760096E-002,8.760096E-002,8.760096E-002,8.760096E-002,8.760096E-002,8.760096E-002,8.760096E-002,
   **   ~~~   ** Air System Named = CENTRAL SYSTEM did not converge for energy
   **   ~~~   ** Check values should be zero. Most Recent values listed first.
   **   ~~~   ** Demand-to-Supply interface energy check value iteration history trace: 1731.728500,1731.728500,1731.728500,1731.728500,1731.728500,1731.728499,1731.728499,1731.728499,1731.728499,1731.728499,
   **   ~~~   ** Supply-to-demand interface deck 1 energy check value iteration history trace: 2902.100229,2902.100229,2902.100229,2902.100229,2902.100229,2902.100229,2902.100228,2902.100228,2902.100228,2902.100228,
   ** Warning ** SimHVAC: Maximum iterations (20) exceeded for all HVAC loops, at ANNUAL, 04/30 09:30 - 09:38
   **   ~~~   ** The solution for one or more of the Air Loop HVAC systems did not appear to converge
   **   ~~~   ** Air System Named = CENTRAL SYSTEM did not converge for mass flow rate
   **   ~~~   ** Check values should be zero. Most Recent values listed first.
   **   ~~~   ** Demand-to-Supply interface mass flow rate check value iteration history trace: 6.430758E-002,6.430758E-002,6.430758E-002,6.430758E-002,6.430758E-002,6.430758E-002,6.430758E-002,6.430758E-002,6.430758E-002,6.430758E-002,
   **   ~~~   ** Supply-to-demand interface deck 1 mass flow rate check value iteration history trace: 6.430758E-002,6.430758E-002,6.430758E-002,6.430758E-002,6.430758E-002,6.430758E-002,6.430758E-002,6.430758E-002,6.430758E-002,6.430758E-002,
   **   ~~~   ** Air System Named = CENTRAL SYSTEM did not converge for energy
   **   ~~~   ** Check values should be zero. Most Recent values listed first.
   **   ~~~   ** Demand-to-Supply interface energy check value iteration history trace: 1272.729789,1272.729789,1272.729789,1272.729789,1272.729788,1272.729788,1272.729788,1272.729788,1272.729788,1272.729788,
   **   ~~~   ** Supply-to-demand interface deck 1 energy check value iteration history trace: 2205.953222,2205.953222,2205.953222,2205.953222,2205.953222,2205.953222,2205.953222,2205.953221,2205.953221,2205.953221,
   ** Warning ** SimHVAC: Maximum iterations (20) exceeded for all HVAC loops, at ANNUAL, 04/30 10:34 - 10:38
   **   ~~~   ** The solution for one or more of the Air Loop HVAC systems did not appear to converge
   **   ~~~   ** Air System Named = CENTRAL SYSTEM did not converge for mass flow rate
   **   ~~~   ** Check values should be zero. Most Recent values listed first.
   **   ~~~   ** Demand-to-Supply interface mass flow rate check value iteration history trace: 6.122594E-002,6.122594E-002,6.122594E-002,6.122594E-002,6.122594E-002,6.122594E-002,6.122594E-002,6.122594E-002,6.122594E-002,6.122594E-002,
   **   ~~~   ** Supply-to-demand interface deck 1 mass flow rate check value iteration history trace: 6.122594E-002,6.122594E-002,6.122594E-002,6.122594E-002,6.122594E-002,6.122594E-002,6.122594E-002,6.122594E-002,6.122594E-002,6.122594E-002,
   **   ~~~   ** Air System Named = CENTRAL SYSTEM did not converge for energy
   **   ~~~   ** Check values should be zero. Most Recent values listed first.
   **   ~~~   ** Demand-to-Supply interface energy check value iteration history trace: 1205.798603,1205.798602,1205.798602,1205.798602,1205.798602,1205.798602,1205.798602,1205.798602,1205.798602,1205.798602,
   **   ~~~   ** Supply-to-demand interface deck 1 energy check value iteration history trace: 2123.106930,2123.106930,2123.106929,2123.106929,2123.106929,2123.106929,2123.106929,2123.106929,2123.106929,2123.106929,
   ************* Simulation Error Summary *************
   ** Warning ** The following Report Variables were requested but not generated -- check.rdd file
   **   ~~~   ** Either the IDF did not contain these elements, the variable name is misspelled,
   **   ~~~   ** or the requested variable is an advanced output which requires Output : Diagnostics, DisplayAdvancedReportVariables;
   ************* Key=*, VarName=BASEBOARD TOTAL HEATING ENERGY, Frequency=
   ************* Key=*, VarName=WATER HEATER NATURALGAS ENERGY, Frequency=
   ************* Key=*, VarName=COOLING COIL TOTAL HEATING ENERGY, Frequency=
   ************* There are 34 unused schedules in input.
   ************* There are 388 unused week schedules in input.
   ************* There are 396 unused day schedules in input.
   ************* Use Output:Diagnostics,DisplayUnusedSchedules; to see them.
   *************
   ************* ===== Recurring Error Summary =====
   ************* The following recurring error messages occurred.
   *************
   *************  ** Warning ** "TOTAL HOT WATER LOAD" - Target water temperature should be less than or equal to the hot water temperature error continues...
   *************  **   ~~~   **   This error occurred 162131 total times;
   *************  **   ~~~   **   during Warmup 0 times;
   *************  **   ~~~   **   during Sizing 0 times.
   *************  **   ~~~   **   Max=12.013286  Min=7.052331E-004
   *************
   *************  ** Warning ** SimHVAC: Exceeding Maximum iterations for all HVAC loops, during ANNUAL continues
   *************  **   ~~~   **   This error occurred 21 total times;
   *************  **   ~~~   **   during Warmup 0 times;
   *************  **   ~~~   **   during Sizing 0 times.
   *************
   *************
   ************* ===== Final Error Summary =====
   ************* The following error categories occurred.  Consider correcting or noting.
   ************* Nominally Unused Constructions
   ************* ..The nominally unused constructions warning is provided to alert you to potential conditions that can cause
   ************* ..extra time during simulation. Each construction is calculated by the algorithm indicated in the HeatBalanceAlgorithm
   ************* ..object. You may remove the constructions indicated (when you use the DisplayExtraWarnings option).
   *************
   ************* EnergyPlus Warmup Error Summary. During Warmup: 1 Warning; 0 Severe Errors.
   ************* EnergyPlus Sizing Error Summary. During Sizing: 4 Warning; 0 Severe Errors.
   ************* EnergyPlus Completed Successfully-- 162183 Warning; 0 Severe Errors; Elapsed Time=00hr 01min 37.05sec
