Program Version,EnergyPlus, Version 22.2.0-c249759bad, YMD=2023.09.01 18:51,
   ************* Beginning Zone Sizing Calculations
   ** Warning ** ProcessScheduleInput: Schedule:Constant="ALWAYS ON DISCRETE", Schedule Type Limits Name="ONOFF" not found -- will not be validated
   ** Warning ** Foundation:Kiva="KIVA FOUNDATION", no Interior Horizontal Insulation Material Name defined
   **   ~~~   ** Interior Horizontal Insulation Depth will not be used.
   ** Warning ** CheckUsedConstructions: There are 15 nominally unused constructions in input.
   **   ~~~   ** Each Unused construction is shown.
   ************* Construction=INTERIOR FLOOR
   ************* Construction=INTERIOR WINDOW
   ************* Construction=EXTERIOR DOOR
   ************* Construction=INTERIOR DOOR
   ************* Construction=GABLE CONSTRUCTION
   ************* Construction=CRAWL_FLOOR
   ************* Construction=INSULATED PIPE
   ************* Construction=PLAIN PIPE
   ************* Construction=TDD PIPE
   ************* Construction=TDD DOME
   ************* Construction=TDD DIFFUSER
   ************* Construction=CRAWL WALL
   ************* Construction=CEILING-FLOOR-LAYER
   ************* Construction=SLAB CONSTRUCTION W FULL R10 INSULATION
   ************* Construction=SLAB CONSTRUCTION W FULL R5 INSULATION
   ** Warning ** GetDXCoils: Coil:Heating:DX:SingleSpeed="DX_HEATING_COIL" curve values
   **   ~~~   ** ... Defrost Energy Input Ratio Function of Temperature Curve Name = DEFROSTEIR output is not equal to 1.0 (+ or - 10%) at rated conditions.
   **   ~~~   ** ... Curve output at rated conditions = 0.152
   ************* Beginning System Sizing Calculations
   ************* Beginning Plant Sizing Calculations
   ** Warning ** SizeDXCoil Coil:Cooling:DX:SingleSpeed DX_COOLING_COIL
   **   ~~~   ** ...Gross Rated Total Cooling Capacity [W] will be limited by the maximum rated volume flow per rated total capacity ratio.
   **   ~~~   ** ...DX coil volume flow rate ( m3/s ) = 0.381074
   **   ~~~   ** ...Requested capacity ( W ) = 5740.572
   **   ~~~   ** ...Requested flow/capacity ratio ( m3/s/W ) = 6.638E-005
   **   ~~~   ** ...Maximum flow/capacity ratio ( m3/s/W ) = 6.041E-005
   **   ~~~   ** ...Adjusted capacity ( W ) = 6308.129
   ** Warning ** Coil:WaterHeating:AirToWaterHeatPump:Wrapped "HEAT PUMP WATER HEATER EVAPORATOR": Rated air volume flow rate per watt of rated total water heating capacity is out of range
   **   ~~~   ** Min Rated Vol Flow Per Watt=[4.027E-005], Rated Vol Flow Per Watt=[1.510E-004], Max Rated Vol Flow Per Watt=[8.056E-005]. See Input-Output Reference Manual for valid range.
   ************* SizeFan: : Potential issue with equipment sizing for Fan:OnOff HEAT PUMP WATER HEATER FAN
   **   ~~~   ** User-Specified Maximum Flow Rate [m3/s] = 0.22653
   **   ~~~   ** differs from Design Size Maximum Flow Rate [m3/s] = 7.55250E-002
   **   ~~~   ** This may, or may not, indicate mismatched component sizes.
   **   ~~~   ** Verify that the value entered is intended and is consistent with other components.
   ** Warning ** Water heater = WATER HEATER TANK:  Recovery Efficiency and Energy Factor could not be calculated during the test for standard ratings
   **   ~~~   ** Setpoint was never recovered and/or heater never turned on
   ** Warning ** Check input. Pump nominal power or motor efficiency is set to 0, for pump=MAINS PRESSURE
   ** Warning ** Output:Meter: invalid Key Name="ELECTRIC_RANGE:INTERIOREQUIPMENT:ELECTRICITY" - not found.
   ** Warning ** Output:Meter: invalid Key Name="ELECTRIC_DRYER:INTERIOREQUIPMENT:ELECTRICITY" - not found.
   ** Warning ** Output:Meter: invalid Key Name="HEATRECOVERY:ELECTRICITY" - not found.
   ** Warning ** Output:Meter: invalid Key Name="HEATING:NATURALGAS" - not found.
   ** Warning ** Output:Meter: invalid Key Name="WATERSYSTEMS:NATURALGAS" - not found.
   ** Warning ** Output:Meter: invalid Key Name="PROPANE:FACILITY" - not found.
   ** Warning ** Output:Meter: invalid Key Name="HEATING:PROPANE" - not found.
   ************* Testing Individual Branch Integrity
   ************* All Branches passed integrity testing
   ************* Testing Individual Supply Air Path Integrity
   ************* All Supply Air Paths passed integrity testing
   ************* Testing Individual Return Air Path Integrity
   ************* All Return Air Paths passed integrity testing
   ************* No node connection errors were found.
   ************* Beginning Simulation
   ** Warning ** AirflowNetwork::Solver::validate_distribution: Heat pump water heater is simulated along with an AirflowNetwork but is not included in the AirflowNetwork.
   ** Warning ** CalcEquipmentFlowRates: "TOTAL HOT WATER LOAD" - Target water temperature is greater than the hot water temperature by (0.63 C)
   **   ~~~   **  Environment=EXTREME_WINTER, at Simulation time=01/15 03:45 - 04:00
   **   ~~~   ** ...target water temperature     = 53.33 C
   **   ~~~   ** ...hot water temperature        = 52.71 C
   **   ~~~   ** ...Target water temperature should be less than or equal to the hot water temperature. Verify temperature setpoints and schedules.
   ** Warning ** SimHVAC: Maximum iterations (20) exceeded for all HVAC loops, at EXTREME_WINTER, 01/19 09:00 - 09:15
   **   ~~~   ** The solution for one or more of the Air Loop HVAC systems did not appear to converge
   **   ~~~   ** Air System Named = CENTRAL SYSTEM did not converge for mass flow rate
   **   ~~~   ** Check values should be zero. Most Recent values listed first.
   **   ~~~   ** Demand-to-Supply interface mass flow rate check value iteration history trace: 4.397418E-002,4.397418E-002,4.397418E-002,4.397418E-002,4.397418E-002,4.397418E-002,4.397418E-002,4.397418E-002,4.397418E-002,4.397418E-002,
   **   ~~~   ** Supply-to-demand interface deck 1 mass flow rate check value iteration history trace: 4.397418E-002,4.397418E-002,4.397418E-002,4.397418E-002,4.397418E-002,4.397418E-002,4.397418E-002,4.397418E-002,4.397418E-002,4.397418E-002,
   **   ~~~   ** Air System Named = CENTRAL SYSTEM did not converge for energy
   **   ~~~   ** Check values should be zero. Most Recent values listed first.
   **   ~~~   ** Demand-to-Supply interface energy check value iteration history trace: 871.411861,871.411861,871.411860,871.411860,871.411860,871.411860,871.411860,871.411860,871.411860,871.411860,
   **   ~~~   ** Supply-to-demand interface deck 1 energy check value iteration history trace: 1499.437190,1499.437190,1499.437190,1499.437190,1499.437190,1499.437190,1499.437190,1499.437190,1499.437190,1499.437189,
   ** Warning ** SimHVAC: Maximum iterations (20) exceeded for all HVAC loops, at EXTREME_WINTER, 01/20 09:30 - 09:32
   **   ~~~   ** The solution for one or more of the Air Loop HVAC systems did not appear to converge
   **   ~~~   ** Air System Named = CENTRAL SYSTEM did not converge for mass flow rate
   **   ~~~   ** Check values should be zero. Most Recent values listed first.
   **   ~~~   ** Demand-to-Supply interface mass flow rate check value iteration history trace: 7.683243E-002,7.683243E-002,7.683243E-002,7.683243E-002,7.683243E-002,7.683243E-002,7.683243E-002,7.683243E-002,7.683243E-002,7.683243E-002,
   **   ~~~   ** Supply-to-demand interface deck 1 mass flow rate check value iteration history trace: 7.683243E-002,7.683243E-002,7.683243E-002,7.683243E-002,7.683243E-002,7.683243E-002,7.683243E-002,7.683243E-002,7.683243E-002,7.683243E-002,
   **   ~~~   ** Air System Named = CENTRAL SYSTEM did not converge for energy
   **   ~~~   ** Check values should be zero. Most Recent values listed first.
   **   ~~~   ** Demand-to-Supply interface energy check value iteration history trace: 1519.851382,1519.851382,1519.851382,1519.851382,1519.851382,1519.851382,1519.851382,1519.851381,1519.851381,1519.851381,
   **   ~~~   ** Supply-to-demand interface deck 1 energy check value iteration history trace: 2568.877901,2568.877901,2568.877901,2568.877901,2568.877900,2568.877900,2568.877900,2568.877900,2568.877900,2568.877900,
   ** Warning ** SimHVAC: Maximum iterations (20) exceeded for all HVAC loops, at EXTREME_WINTER, 01/21 03:25 - 03:30
   **   ~~~   ** The solution for one or more of the Air Loop HVAC systems did not appear to converge
   **   ~~~   ** Air System Named = CENTRAL SYSTEM did not converge for mass flow rate
   **   ~~~   ** Check values should be zero. Most Recent values listed first.
   **   ~~~   ** Demand-to-Supply interface mass flow rate check value iteration history trace: 5.950212E-002,5.950212E-002,5.950212E-002,5.950212E-002,5.950212E-002,5.950212E-002,5.950212E-002,5.950212E-002,5.950212E-002,5.950212E-002,
   **   ~~~   ** Supply-to-demand interface deck 1 mass flow rate check value iteration history trace: 5.950212E-002,5.950212E-002,5.950212E-002,5.950212E-002,5.950212E-002,5.950212E-002,5.950212E-002,5.950212E-002,5.950212E-002,5.950212E-002,
   **   ~~~   ** Air System Named = CENTRAL SYSTEM did not converge for energy
   **   ~~~   ** Check values should be zero. Most Recent values listed first.
   **   ~~~   ** Demand-to-Supply interface energy check value iteration history trace: 1112.677207,1112.677207,1112.677207,1112.677207,1112.677207,1112.677207,1112.677207,1112.677207,1112.677207,1112.677207,
   **   ~~~   ** Supply-to-demand interface deck 1 energy check value iteration history trace: 1924.800876,1924.800876,1924.800876,1924.800875,1924.800875,1924.800875,1924.800875,1924.800875,1924.800875,1924.800875,
   ** Warning ** SimHVAC: Maximum iterations (20) exceeded for all HVAC loops, at ANNUAL, 02/06 09:03 - 09:06
   **   ~~~   ** The solution for one or more of the Air Loop HVAC systems did not appear to converge
   **   ~~~   ** Air System Named = CENTRAL SYSTEM did not converge for mass flow rate
   **   ~~~   ** Check values should be zero. Most Recent values listed first.
   **   ~~~   ** Demand-to-Supply interface mass flow rate check value iteration history trace: 5.765678E-002,5.765678E-002,5.765678E-002,5.765678E-002,5.765678E-002,5.765678E-002,5.765678E-002,5.765678E-002,5.765678E-002,5.765678E-002,
   **   ~~~   ** Supply-to-demand interface deck 1 mass flow rate check value iteration history trace: 5.765678E-002,5.765678E-002,5.765678E-002,5.765678E-002,5.765678E-002,5.765678E-002,5.765678E-002,5.765678E-002,5.765678E-002,5.765678E-002,
   **   ~~~   ** Air System Named = CENTRAL SYSTEM did not converge for energy
   **   ~~~   ** Check values should be zero. Most Recent values listed first.
   **   ~~~   ** Demand-to-Supply interface energy check value iteration history trace: 1142.609454,1142.609454,1142.609454,1142.609454,1142.609453,1142.609453,1142.609453,1142.609453,1142.609453,1142.609453,
   **   ~~~   ** Supply-to-demand interface deck 1 energy check value iteration history trace: 1973.016118,1973.016118,1973.016118,1973.016118,1973.016118,1973.016117,1973.016117,1973.016117,1973.016117,1973.016117,
   ** Warning ** SimHVAC: Maximum iterations (20) exceeded for all HVAC loops, at ANNUAL, 02/09 08:30 - 08:34
   **   ~~~   ** The solution for one or more of the Air Loop HVAC systems did not appear to converge
   **   ~~~   ** Air System Named = CENTRAL SYSTEM did not converge for mass flow rate
   **   ~~~   ** Check values should be zero. Most Recent values listed first.
   **   ~~~   ** Demand-to-Supply interface mass flow rate check value iteration history trace: 6.466876E-002,6.466876E-002,6.466876E-002,6.466876E-002,6.466876E-002,6.466876E-002,6.466876E-002,6.466876E-002,6.466876E-002,6.466876E-002,
   **   ~~~   ** Supply-to-demand interface deck 1 mass flow rate check value iteration history trace: 6.466876E-002,6.466876E-002,6.466876E-002,6.466876E-002,6.466876E-002,6.466876E-002,6.466876E-002,6.466876E-002,6.466876E-002,6.466876E-002,
   **   ~~~   ** Air System Named = CENTRAL SYSTEM did not converge for energy
   **   ~~~   ** Check values should be zero. Most Recent values listed first.
   **   ~~~   ** Demand-to-Supply interface energy check value iteration history trace: 1279.378226,1279.378226,1279.378226,1279.378226,1279.378226,1279.378226,1279.378226,1279.378226,1279.378226,1279.378226,
   **   ~~~   ** Supply-to-demand interface deck 1 energy check value iteration history trace: 2221.991204,2221.991204,2221.991204,2221.991204,2221.991204,2221.991204,2221.991204,2221.991204,2221.991204,2221.991203,
   ** Warning ** SimHVAC: Maximum iterations (20) exceeded for all HVAC loops, at ANNUAL, 02/15 08:15 - 08:30
   **   ~~~   ** The solution for one or more of the Air Loop HVAC systems did not appear to converge
   **   ~~~   ** Air System Named = CENTRAL SYSTEM did not converge for mass flow rate
   **   ~~~   ** Check values should be zero. Most Recent values listed first.
   **   ~~~   ** Demand-to-Supply interface mass flow rate check value iteration history trace: 7.666958E-002,7.666958E-002,7.666958E-002,7.666958E-002,7.666958E-002,7.666958E-002,7.666958E-002,7.666958E-002,7.666958E-002,7.666958E-002,
   **   ~~~   ** Supply-to-demand interface deck 1 mass flow rate check value iteration history trace: 7.666958E-002,7.666958E-002,7.666958E-002,7.666958E-002,7.666958E-002,7.666958E-002,7.666958E-002,7.666958E-002,7.666958E-002,7.666958E-002,
   **   ~~~   ** Air System Named = CENTRAL SYSTEM did not converge for energy
   **   ~~~   ** Check values should be zero. Most Recent values listed first.
   **   ~~~   ** Demand-to-Supply interface energy check value iteration history trace: 1519.165966,1519.165966,1519.165966,1519.165966,1519.165966,1519.165966,1519.165966,1519.165966,1519.165966,1519.165966,
   **   ~~~   ** Supply-to-demand interface deck 1 energy check value iteration history trace: 2586.908529,2586.908529,2586.908529,2586.908529,2586.908528,2586.908528,2586.908528,2586.908528,2586.908528,2586.908528,
   ** Warning ** SimHVAC: Maximum iterations (20) exceeded for all HVAC loops, at ANNUAL, 02/25 07:20 - 07:25
   **   ~~~   ** The solution for one or more of the Air Loop HVAC systems did not appear to converge
   **   ~~~   ** Air System Named = CENTRAL SYSTEM did not converge for mass flow rate
   **   ~~~   ** Check values should be zero. Most Recent values listed first.
   **   ~~~   ** Demand-to-Supply interface mass flow rate check value iteration history trace: 6.323865E-002,6.323865E-002,6.323865E-002,6.323865E-002,6.323865E-002,6.323865E-002,6.323865E-002,6.323865E-002,6.323865E-002,6.323865E-002,
   **   ~~~   ** Supply-to-demand interface deck 1 mass flow rate check value iteration history trace: 6.323865E-002,6.323865E-002,6.323865E-002,6.323865E-002,6.323865E-002,6.323865E-002,6.323865E-002,6.323865E-002,6.323865E-002,6.323865E-002,
   **   ~~~   ** Air System Named = CENTRAL SYSTEM did not converge for energy
   **   ~~~   ** Check values should be zero. Most Recent values listed first.
   **   ~~~   ** Demand-to-Supply interface energy check value iteration history trace: 1253.721003,1253.721003,1253.721003,1253.721003,1253.721003,1253.721003,1253.721003,1253.721003,1253.721002,1253.721002,
   **   ~~~   ** Supply-to-demand interface deck 1 energy check value iteration history trace: 2144.643110,2144.643110,2144.643110,2144.643110,2144.643110,2144.643110,2144.643110,2144.643110,2144.643109,2144.643109,
   ** Warning ** SimHVAC: Maximum iterations (20) exceeded for all HVAC loops, at ANNUAL, 03/01 09:00 - 09:03
   **   ~~~   ** The solution for one or more of the Air Loop HVAC systems did not appear to converge
   **   ~~~   ** Air System Named = CENTRAL SYSTEM did not converge for mass flow rate
   **   ~~~   ** Check values should be zero. Most Recent values listed first.
   **   ~~~   ** Demand-to-Supply interface mass flow rate check value iteration history trace: 6.374576E-002,6.374576E-002,6.374576E-002,6.374576E-002,6.374576E-002,6.374576E-002,6.374576E-002,6.374576E-002,6.374576E-002,6.374576E-002,
   **   ~~~   ** Supply-to-demand interface deck 1 mass flow rate check value iteration history trace: 6.374576E-002,6.374576E-002,6.374576E-002,6.374576E-002,6.374576E-002,6.374576E-002,6.374576E-002,6.374576E-002,6.374576E-002,6.374576E-002,
   **   ~~~   ** Air System Named = CENTRAL SYSTEM did not converge for energy
   **   ~~~   ** Check values should be zero. Most Recent values listed first.
   **   ~~~   ** Demand-to-Supply interface energy check value iteration history trace: 1263.214084,1263.214084,1263.214084,1263.214084,1263.214084,1263.214084,1263.214084,1263.214084,1263.214084,1263.214083,
   **   ~~~   ** Supply-to-demand interface deck 1 energy check value iteration history trace: 2169.596669,2169.596669,2169.596668,2169.596668,2169.596668,2169.596668,2169.596668,2169.596668,2169.596668,2169.596668,
   ** Warning ** SimHVAC: Maximum iterations (20) exceeded for all HVAC loops, at ANNUAL, 03/01 09:15 - 09:30
   **   ~~~   ** The solution for one or more of the Air Loop HVAC systems did not appear to converge
   **   ~~~   ** Air System Named = CENTRAL SYSTEM did not converge for mass flow rate
   **   ~~~   ** Check values should be zero. Most Recent values listed first.
   **   ~~~   ** Demand-to-Supply interface mass flow rate check value iteration history trace: 6.007623E-002,6.007623E-002,6.007623E-002,6.007623E-002,6.007623E-002,6.007623E-002,6.007623E-002,6.007623E-002,6.007623E-002,6.007623E-002,
   **   ~~~   ** Supply-to-demand interface deck 1 mass flow rate check value iteration history trace: 6.007623E-002,6.007623E-002,6.007623E-002,6.007623E-002,6.007623E-002,6.007623E-002,6.007623E-002,6.007623E-002,6.007623E-002,6.007623E-002,
   **   ~~~   ** Air System Named = CENTRAL SYSTEM did not converge for energy
   **   ~~~   ** Check values should be zero. Most Recent values listed first.
   **   ~~~   ** Demand-to-Supply interface energy check value iteration history trace: 1184.063894,1184.063894,1184.063894,1184.063894,1184.063894,1184.063894,1184.063894,1184.063894,1184.063894,1184.063894,
   **   ~~~   ** Supply-to-demand interface deck 1 energy check value iteration history trace: 2060.405554,2060.405554,2060.405554,2060.405554,2060.405554,2060.405554,2060.405554,2060.405554,2060.405554,2060.405554,
   ** Warning ** SimHVAC: Maximum iterations (20) exceeded for all HVAC loops, at ANNUAL, 03/10 05:23 - 05:30
   **   ~~~   ** The solution for one or more of the Air Loop HVAC systems did not appear to converge
   **   ~~~   ** Air System Named = CENTRAL SYSTEM did not converge for mass flow rate
   **   ~~~   ** Check values should be zero. Most Recent values listed first.
   **   ~~~   ** Demand-to-Supply interface mass flow rate check value iteration history trace: 6.215789E-002,6.215789E-002,6.215789E-002,6.215789E-002,6.215789E-002,6.215789E-002,6.215789E-002,6.215789E-002,6.215789E-002,6.215789E-002,
   **   ~~~   ** Supply-to-demand interface deck 1 mass flow rate check value iteration history trace: 6.215789E-002,6.215789E-002,6.215789E-002,6.215789E-002,6.215789E-002,6.215789E-002,6.215789E-002,6.215789E-002,6.215789E-002,6.215789E-002,
   **   ~~~   ** Air System Named = CENTRAL SYSTEM did not converge for energy
   **   ~~~   ** Check values should be zero. Most Recent values listed first.
   **   ~~~   ** Demand-to-Supply interface energy check value iteration history trace: 1229.826102,1229.826102,1229.826102,1229.826102,1229.826102,1229.826102,1229.826102,1229.826102,1229.826102,1229.826101,
   **   ~~~   ** Supply-to-demand interface deck 1 energy check value iteration history trace: 2048.469285,2048.469285,2048.469285,2048.469285,2048.469285,2048.469285,2048.469285,2048.469284,2048.469284,2048.469284,
   ** Warning ** SimHVAC: Maximum iterations (20) exceeded for all HVAC loops, at ANNUAL, 03/13 08:38 - 08:41
   **   ~~~   ** The solution for one or more of the Air Loop HVAC systems did not appear to converge
   **   ~~~   ** Air System Named = CENTRAL SYSTEM did not converge for mass flow rate
   **   ~~~   ** Check values should be zero. Most Recent values listed first.
   **   ~~~   ** Demand-to-Supply interface mass flow rate check value iteration history trace: 5.394030E-002,5.394030E-002,5.394030E-002,5.394030E-002,5.394030E-002,5.394030E-002,5.394030E-002,5.394030E-002,5.394030E-002,5.394030E-002,
   **   ~~~   ** Supply-to-demand interface deck 1 mass flow rate check value iteration history trace: 5.394030E-002,5.394030E-002,5.394030E-002,5.394030E-002,5.394030E-002,5.394030E-002,5.394030E-002,5.394030E-002,5.394030E-002,5.394030E-002,
   **   ~~~   ** Air System Named = CENTRAL SYSTEM did not converge for energy
   **   ~~~   ** Check values should be zero. Most Recent values listed first.
   **   ~~~   ** Demand-to-Supply interface energy check value iteration history trace: 1063.046636,1063.046636,1063.046636,1063.046636,1063.046635,1063.046635,1063.046635,1063.046635,1063.046635,1063.046635,
   **   ~~~   ** Supply-to-demand interface deck 1 energy check value iteration history trace: 1866.701404,1866.701404,1866.701404,1866.701404,1866.701404,1866.701404,1866.701404,1866.701404,1866.701403,1866.701403,
   ** Warning ** SimHVAC: Maximum iterations (20) exceeded for all HVAC loops, at ANNUAL, 03/15 08:38 - 08:40
   **   ~~~   ** The solution for one or more of the Air Loop HVAC systems did not appear to converge
   **   ~~~   ** Air System Named = CENTRAL SYSTEM did not converge for mass flow rate
   **   ~~~   ** Check values should be zero. Most Recent values listed first.
   **   ~~~   ** Demand-to-Supply interface mass flow rate check value iteration history trace: 6.145112E-002,6.145112E-002,6.145112E-002,6.145112E-002,6.145112E-002,6.145112E-002,6.145112E-002,6.145112E-002,6.145112E-002,6.145112E-002,
   **   ~~~   ** Supply-to-demand interface deck 1 mass flow rate check value iteration history trace: 6.145112E-002,6.145112E-002,6.145112E-002,6.145112E-002,6.145112E-002,6.145112E-002,6.145112E-002,6.145112E-002,6.145112E-002,6.145112E-002,
   **   ~~~   ** Air System Named = CENTRAL SYSTEM did not converge for energy
   **   ~~~   ** Check values should be zero. Most Recent values listed first.
   **   ~~~   ** Demand-to-Supply interface energy check value iteration history trace: 1216.693449,1216.693449,1216.693449,1216.693449,1216.693449,1216.693449,1216.693449,1216.693449,1216.693449,1216.693449,
   **   ~~~   ** Supply-to-demand interface deck 1 energy check value iteration history trace: 2151.491669,2151.491669,2151.491669,2151.491669,2151.491669,2151.491669,2151.491669,2151.491669,2151.491669,2151.491669,
   ** Warning ** SimHVAC: Maximum iterations (20) exceeded for all HVAC loops, at ANNUAL, 03/21 06:15 - 06:30
   **   ~~~   ** The solution for one or more of the Air Loop HVAC systems did not appear to converge
   **   ~~~   ** Air System Named = CENTRAL SYSTEM did not converge for mass flow rate
   **   ~~~   ** Check values should be zero. Most Recent values listed first.
   **   ~~~   ** Demand-to-Supply interface mass flow rate check value iteration history trace: 6.657719E-002,6.657719E-002,6.657719E-002,6.657719E-002,6.657719E-002,6.657719E-002,6.657719E-002,6.657719E-002,6.657719E-002,6.657719E-002,
   **   ~~~   ** Supply-to-demand interface deck 1 mass flow rate check value iteration history trace: 6.657719E-002,6.657719E-002,6.657719E-002,6.657719E-002,6.657719E-002,6.657719E-002,6.657719E-002,6.657719E-002,6.657719E-002,6.657719E-002,
   **   ~~~   ** Air System Named = CENTRAL SYSTEM did not converge for energy
   **   ~~~   ** Check values should be zero. Most Recent values listed first.
   **   ~~~   ** Demand-to-Supply interface energy check value iteration history trace: 1320.284348,1320.284348,1320.284348,1320.284348,1320.284348,1320.284348,1320.284348,1320.284348,1320.284348,1320.284348,
   **   ~~~   ** Supply-to-demand interface deck 1 energy check value iteration history trace: 2250.989711,2250.989711,2250.989711,2250.989711,2250.989711,2250.989711,2250.989711,2250.989711,2250.989710,2250.989710,
   ** Warning ** SimHVAC: Maximum iterations (20) exceeded for all HVAC loops, at ANNUAL, 03/21 06:15 - 06:22
   **   ~~~   ** The solution for one or more of the Air Loop HVAC systems did not appear to converge
   **   ~~~   ** Air System Named = CENTRAL SYSTEM did not converge for mass flow rate
   **   ~~~   ** Check values should be zero. Most Recent values listed first.
   **   ~~~   ** Demand-to-Supply interface mass flow rate check value iteration history trace: 6.698383E-002,6.698383E-002,6.698383E-002,6.698383E-002,6.698383E-002,6.698383E-002,6.698383E-002,6.698383E-002,6.698383E-002,6.698383E-002,
   **   ~~~   ** Supply-to-demand interface deck 1 mass flow rate check value iteration history trace: 6.698383E-002,6.698383E-002,6.698383E-002,6.698383E-002,6.698383E-002,6.698383E-002,6.698383E-002,6.698383E-002,6.698383E-002,6.698383E-002,
   **   ~~~   ** Air System Named = CENTRAL SYSTEM did not converge for energy
   **   ~~~   ** Check values should be zero. Most Recent values listed first.
   **   ~~~   ** Demand-to-Supply interface energy check value iteration history trace: 1328.348372,1328.348372,1328.348372,1328.348372,1328.348372,1328.348372,1328.348372,1328.348372,1328.348371,1328.348371,
   **   ~~~   ** Supply-to-demand interface deck 1 energy check value iteration history trace: 2264.736161,2264.736161,2264.736161,2264.736161,2264.736161,2264.736161,2264.736161,2264.736161,2264.736161,2264.736161,
   ************* Simulation Error Summary *************
   ** Warning ** The following Report Variables were requested but not generated -- check.rdd file
   **   ~~~   ** Either the IDF did not contain these elements, the variable name is misspelled,
   **   ~~~   ** or the requested variable is an advanced output which requires Output : Diagnostics, DisplayAdvancedReportVariables;
   ************* Key=*, VarName=BASEBOARD TOTAL HEATING ENERGY, Frequency=
   ************* Key=*, VarName=WATER HEATER NATURALGAS ENERGY, Frequency=
   ************* Key=*, VarName=COOLING COIL TOTAL HEATING ENERGY, Frequency=
   ************* There are 34 unused schedules in input.
   ************* There are 388 unused week schedules in input.
   ************* There are 396 unused day schedules in input.
   ************* Use Output:Diagnostics,DisplayUnusedSchedules; to see them.
   *************
   ************* ===== Recurring Error Summary =====
   ************* The following recurring error messages occurred.
   *************
   *************  ** Warning ** "TOTAL HOT WATER LOAD" - Target water temperature should be less than or equal to the hot water temperature error continues...
   *************  **   ~~~   **   This error occurred 70693 total times;
   *************  **   ~~~   **   during Warmup 0 times;
   *************  **   ~~~   **   during Sizing 0 times.
   *************  **   ~~~   **   Max=6.273472  Min=1.366814E-003
   *************
   *************  ** Warning ** SimHVAC: Exceeding Maximum iterations for all HVAC loops, during ANNUAL continues
   *************  **   ~~~   **   This error occurred 11 total times;
   *************  **   ~~~   **   during Warmup 0 times;
   *************  **   ~~~   **   during Sizing 0 times.
   *************
   *************
   ************* ===== Final Error Summary =====
   ************* The following error categories occurred.  Consider correcting or noting.
   ************* Nominally Unused Constructions
   ************* ..The nominally unused constructions warning is provided to alert you to potential conditions that can cause
   ************* ..extra time during simulation. Each construction is calculated by the algorithm indicated in the HeatBalanceAlgorithm
   ************* ..object. You may remove the constructions indicated (when you use the DisplayExtraWarnings option).
   *************
   ************* EnergyPlus Warmup Error Summary. During Warmup: 1 Warning; 0 Severe Errors.
   ************* EnergyPlus Sizing Error Summary. During Sizing: 4 Warning; 0 Severe Errors.
   ************* EnergyPlus Completed Successfully-- 70736 Warning; 0 Severe Errors; Elapsed Time=00hr 01min 40.45sec
