Program Version,EnergyPlus, Version 22.2.0-c249759bad, YMD=2023.09.01 18:53,
   ************* Beginning Zone Sizing Calculations
   ** Warning ** ProcessScheduleInput: Schedule:Constant="ALWAYS ON DISCRETE", Schedule Type Limits Name="ONOFF" not found -- will not be validated
   ** Warning ** Foundation:Kiva="KIVA FOUNDATION", no Interior Horizontal Insulation Material Name defined
   **   ~~~   ** Interior Horizontal Insulation Depth will not be used.
   ** Warning ** CheckUsedConstructions: There are 15 nominally unused constructions in input.
   **   ~~~   ** Each Unused construction is shown.
   ************* Construction=INTERIOR FLOOR
   ************* Construction=INTERIOR WINDOW
   ************* Construction=EXTERIOR DOOR
   ************* Construction=INTERIOR DOOR
   ************* Construction=GABLE CONSTRUCTION
   ************* Construction=CRAWL_FLOOR
   ************* Construction=INSULATED PIPE
   ************* Construction=PLAIN PIPE
   ************* Construction=TDD PIPE
   ************* Construction=TDD DOME
   ************* Construction=TDD DIFFUSER
   ************* Construction=CRAWL WALL
   ************* Construction=CEILING-FLOOR-LAYER
   ************* Construction=SLAB CONSTRUCTION W FULL R10 INSULATION
   ************* Construction=SLAB CONSTRUCTION W FULL R5 INSULATION
   ** Warning ** GetDXCoils: Coil:Heating:DX:SingleSpeed="DX_HEATING_COIL" curve values
   **   ~~~   ** ... Defrost Energy Input Ratio Function of Temperature Curve Name = DEFROSTEIR output is not equal to 1.0 (+ or - 10%) at rated conditions.
   **   ~~~   ** ... Curve output at rated conditions = 0.152
   ************* Beginning System Sizing Calculations
   ************* Beginning Plant Sizing Calculations
   ** Warning ** SizeDXCoil Coil:Cooling:DX:SingleSpeed DX_COOLING_COIL
   **   ~~~   ** ...Gross Rated Total Cooling Capacity [W] will be limited by the maximum rated volume flow per rated total capacity ratio.
   **   ~~~   ** ...DX coil volume flow rate ( m3/s ) = 0.420388
   **   ~~~   ** ...Requested capacity ( W ) = 6485.695
   **   ~~~   ** ...Requested flow/capacity ratio ( m3/s/W ) = 6.481E-005
   **   ~~~   ** ...Maximum flow/capacity ratio ( m3/s/W ) = 6.041E-005
   **   ~~~   ** ...Adjusted capacity ( W ) = 6958.926
   ** Warning ** Coil:WaterHeating:AirToWaterHeatPump:Wrapped "HEAT PUMP WATER HEATER EVAPORATOR": Rated air volume flow rate per watt of rated total water heating capacity is out of range
   **   ~~~   ** Min Rated Vol Flow Per Watt=[4.027E-005], Rated Vol Flow Per Watt=[1.510E-004], Max Rated Vol Flow Per Watt=[8.056E-005]. See Input-Output Reference Manual for valid range.
   ************* SizeFan: : Potential issue with equipment sizing for Fan:OnOff HEAT PUMP WATER HEATER FAN
   **   ~~~   ** User-Specified Maximum Flow Rate [m3/s] = 0.22653
   **   ~~~   ** differs from Design Size Maximum Flow Rate [m3/s] = 7.55250E-002
   **   ~~~   ** This may, or may not, indicate mismatched component sizes.
   **   ~~~   ** Verify that the value entered is intended and is consistent with other components.
   ** Warning ** Water heater = WATER HEATER TANK:  Recovery Efficiency and Energy Factor could not be calculated during the test for standard ratings
   **   ~~~   ** Setpoint was never recovered and/or heater never turned on
   ** Warning ** Check input. Pump nominal power or motor efficiency is set to 0, for pump=MAINS PRESSURE
   ** Warning ** Output:Meter: invalid Key Name="ELECTRIC_RANGE:INTERIOREQUIPMENT:ELECTRICITY" - not found.
   ** Warning ** Output:Meter: invalid Key Name="ELECTRIC_DRYER:INTERIOREQUIPMENT:ELECTRICITY" - not found.
   ** Warning ** Output:Meter: invalid Key Name="HEATRECOVERY:ELECTRICITY" - not found.
   ** Warning ** Output:Meter: invalid Key Name="HEATING:NATURALGAS" - not found.
   ** Warning ** Output:Meter: invalid Key Name="WATERSYSTEMS:NATURALGAS" - not found.
   ** Warning ** Output:Meter: invalid Key Name="PROPANE:FACILITY" - not found.
   ** Warning ** Output:Meter: invalid Key Name="HEATING:PROPANE" - not found.
   ************* Testing Individual Branch Integrity
   ************* All Branches passed integrity testing
   ************* Testing Individual Supply Air Path Integrity
   ************* All Supply Air Paths passed integrity testing
   ************* Testing Individual Return Air Path Integrity
   ************* All Return Air Paths passed integrity testing
   ************* No node connection errors were found.
   ************* Beginning Simulation
   ** Warning ** AirflowNetwork::Solver::validate_distribution: Heat pump water heater is simulated along with an AirflowNetwork but is not included in the AirflowNetwork.
   ** Severe  ** CheckWarmupConvergence: Loads Initialization, Zone="LIVING" did not converge after 25 warmup days.
   **   ~~~   ** See Warmup Convergence Information in .eio file for details.
   **   ~~~   ** ...Environment(SizingPeriod)="EXTREME_WINTER"
   **   ~~~   ** ..Max Temp Comparison = 0.17 vs Temperature Convergence Tolerance=5.00E-002 - Fail Convergence
   **   ~~~   ** ..Min Temp Comparison = 9.90E-003 vs Temperature Convergence Tolerance=5.00E-002 - Pass Convergence
   **   ~~~   ** ..Max Heat Load Comparison = 7.3537E-002 vs Loads Convergence Tolerance=5.00E-002 - Fail Convergence
   **   ~~~   ** ..Max Cool Load Comparison = 9.1775E-003 vs Loads Convergence Tolerance=5.00E-002 - Pass Convergence
   ** Severe  ** CheckWarmupConvergence: Loads Initialization, Zone="ATTIC" did not converge after 25 warmup days.
   **   ~~~   ** ...Environment(SizingPeriod)="EXTREME_WINTER"
   **   ~~~   ** ..Max Temp Comparison = 0.10 vs Temperature Convergence Tolerance=5.00E-002 - Fail Convergence
   **   ~~~   ** ..Min Temp Comparison = 8.87E-003 vs Temperature Convergence Tolerance=5.00E-002 - Pass Convergence
   **   ~~~   ** ..Max Heat Load Comparison = 0.0000 vs Loads Convergence Tolerance=5.00E-002 - Pass Convergence
   **   ~~~   ** ..Max Cool Load Comparison = 0.0000 vs Loads Convergence Tolerance=5.00E-002 - Pass Convergence
   ** Warning ** CalcEquipmentFlowRates: "TOTAL HOT WATER LOAD" - Target water temperature is greater than the hot water temperature by (1.25 C)
   **   ~~~   **  Environment=EXTREME_WINTER, at Simulation time=02/10 03:45 - 04:00
   **   ~~~   ** ...target water temperature     = 53.33 C
   **   ~~~   ** ...hot water temperature        = 52.09 C
   **   ~~~   ** ...Target water temperature should be less than or equal to the hot water temperature. Verify temperature setpoints and schedules.
   ** Warning ** SimHVAC: Maximum iterations (20) exceeded for all HVAC loops, at EXTREME_WINTER, 02/10 19:38 - 19:45
   **   ~~~   ** The solution for one or more of the Air Loop HVAC systems did not appear to converge
   **   ~~~   ** Air System Named = CENTRAL SYSTEM did not converge for mass flow rate
   **   ~~~   ** Check values should be zero. Most Recent values listed first.
   **   ~~~   ** Demand-to-Supply interface mass flow rate check value iteration history trace: 2.164512E-002,2.164512E-002,2.164512E-002,2.164512E-002,2.164512E-002,2.164512E-002,2.164512E-002,2.164512E-002,2.164512E-002,2.164512E-002,
   **   ~~~   ** Supply-to-demand interface deck 1 mass flow rate check value iteration history trace: 2.164512E-002,2.164512E-002,2.164512E-002,2.164512E-002,2.164512E-002,2.164512E-002,2.164512E-002,2.164512E-002,2.164512E-002,2.164512E-002,
   **   ~~~   ** Air System Named = CENTRAL SYSTEM did not converge for energy
   **   ~~~   ** Check values should be zero. Most Recent values listed first.
   **   ~~~   ** Demand-to-Supply interface energy check value iteration history trace: 428.697526,428.697526,428.697526,428.697526,428.697526,428.697526,428.697526,428.697526,428.697526,428.697526,
   **   ~~~   ** Supply-to-demand interface deck 1 energy check value iteration history trace: 657.832254,657.832254,657.832254,657.832253,657.832253,657.832253,657.832253,657.832253,657.832253,657.832253,
   ** Warning ** SimHVAC: Maximum iterations (20) exceeded for all HVAC loops, at ANNUAL, 01/06 08:15 - 08:30
   **   ~~~   ** The solution for one or more of the Air Loop HVAC systems did not appear to converge
   **   ~~~   ** Air System Named = CENTRAL SYSTEM did not converge for mass flow rate
   **   ~~~   ** Check values should be zero. Most Recent values listed first.
   **   ~~~   ** Demand-to-Supply interface mass flow rate check value iteration history trace: 5.077131E-002,5.077131E-002,5.077131E-002,5.077131E-002,5.077131E-002,5.077131E-002,5.077131E-002,5.077131E-002,5.077131E-002,5.077131E-002,
   **   ~~~   ** Supply-to-demand interface deck 1 mass flow rate check value iteration history trace: 5.077131E-002,5.077131E-002,5.077131E-002,5.077131E-002,5.077131E-002,5.077131E-002,5.077131E-002,5.077131E-002,5.077131E-002,5.077131E-002,
   **   ~~~   ** Air System Named = CENTRAL SYSTEM did not converge for energy
   **   ~~~   ** Check values should be zero. Most Recent values listed first.
   **   ~~~   ** Demand-to-Supply interface energy check value iteration history trace: 1005.902576,1005.902576,1005.902576,1005.902576,1005.902576,1005.902576,1005.902576,1005.902576,1005.902576,1005.902576,
   **   ~~~   ** Supply-to-demand interface deck 1 energy check value iteration history trace: 1818.789501,1818.789501,1818.789501,1818.789501,1818.789501,1818.789501,1818.789501,1818.789501,1818.789501,1818.789501,
   ** Warning ** SimHVAC: Maximum iterations (20) exceeded for all HVAC loops, at ANNUAL, 01/23 13:45 - 14:00
   **   ~~~   ** The solution for one or more of the Air Loop HVAC systems did not appear to converge
   **   ~~~   ** Air System Named = CENTRAL SYSTEM did not converge for mass flow rate
   **   ~~~   ** Check values should be zero. Most Recent values listed first.
   **   ~~~   ** Demand-to-Supply interface mass flow rate check value iteration history trace: 5.444304E-002,5.444304E-002,5.444304E-002,5.444304E-002,5.444304E-002,5.444304E-002,5.444304E-002,5.444304E-002,5.444304E-002,5.444304E-002,
   **   ~~~   ** Supply-to-demand interface deck 1 mass flow rate check value iteration history trace: 5.444304E-002,5.444304E-002,5.444304E-002,5.444304E-002,5.444304E-002,5.444304E-002,5.444304E-002,5.444304E-002,5.444304E-002,5.444304E-002,
   **   ~~~   ** Air System Named = CENTRAL SYSTEM did not converge for energy
   **   ~~~   ** Check values should be zero. Most Recent values listed first.
   **   ~~~   ** Demand-to-Supply interface energy check value iteration history trace: 1078.867060,1078.867060,1078.867060,1078.867060,1078.867060,1078.867060,1078.867060,1078.867060,1078.867060,1078.867060,
   **   ~~~   ** Supply-to-demand interface deck 1 energy check value iteration history trace: 1839.423532,1839.423532,1839.423532,1839.423532,1839.423532,1839.423532,1839.423532,1839.423532,1839.423531,1839.423531,
   ** Warning ** SimHVAC: Maximum iterations (20) exceeded for all HVAC loops, at ANNUAL, 02/26 03:15 - 03:30
   **   ~~~   ** The solution for one or more of the Air Loop HVAC systems did not appear to converge
   **   ~~~   ** Air System Named = CENTRAL SYSTEM did not converge for mass flow rate
   **   ~~~   ** Check values should be zero. Most Recent values listed first.
   **   ~~~   ** Demand-to-Supply interface mass flow rate check value iteration history trace: 6.084376E-002,6.084376E-002,6.084376E-002,6.084376E-002,6.084376E-002,6.084376E-002,6.084376E-002,6.084376E-002,6.084376E-002,6.084376E-002,
   **   ~~~   ** Supply-to-demand interface deck 1 mass flow rate check value iteration history trace: 6.084376E-002,6.084376E-002,6.084376E-002,6.084376E-002,6.084376E-002,6.084376E-002,6.084376E-002,6.084376E-002,6.084376E-002,6.084376E-002,
   **   ~~~   ** Air System Named = CENTRAL SYSTEM did not converge for energy
   **   ~~~   ** Check values should be zero. Most Recent values listed first.
   **   ~~~   ** Demand-to-Supply interface energy check value iteration history trace: 1146.491391,1146.491391,1146.491391,1146.491391,1146.491391,1146.491391,1146.491391,1146.491391,1146.491391,1146.491391,
   **   ~~~   ** Supply-to-demand interface deck 1 energy check value iteration history trace: 1968.659749,1968.659749,1968.659749,1968.659749,1968.659749,1968.659749,1968.659749,1968.659749,1968.659749,1968.659748,
   ** Warning ** SimHVAC: Maximum iterations (20) exceeded for all HVAC loops, at ANNUAL, 03/15 13:38 - 13:45
   **   ~~~   ** The solution for one or more of the Air Loop HVAC systems did not appear to converge
   **   ~~~   ** Air System Named = CENTRAL SYSTEM did not converge for mass flow rate
   **   ~~~   ** Check values should be zero. Most Recent values listed first.
   **   ~~~   ** Demand-to-Supply interface mass flow rate check value iteration history trace: 4.516430E-002,4.516430E-002,4.516430E-002,4.516430E-002,4.516430E-002,4.516430E-002,4.516430E-002,4.516430E-002,4.516430E-002,4.516430E-002,
   **   ~~~   ** Supply-to-demand interface deck 1 mass flow rate check value iteration history trace: 4.516430E-002,4.516430E-002,4.516430E-002,4.516430E-002,4.516430E-002,4.516430E-002,4.516430E-002,4.516430E-002,4.516430E-002,4.516430E-002,
   **   ~~~   ** Air System Named = CENTRAL SYSTEM did not converge for energy
   **   ~~~   ** Check values should be zero. Most Recent values listed first.
   **   ~~~   ** Demand-to-Supply interface energy check value iteration history trace: 884.765888,884.765888,884.765888,884.765887,884.765887,884.765887,884.765887,884.765887,884.765887,884.765887,
   **   ~~~   ** Supply-to-demand interface deck 1 energy check value iteration history trace: 1629.962182,1629.962182,1629.962182,1629.962182,1629.962182,1629.962182,1629.962182,1629.962182,1629.962182,1629.962182,
   ** Warning ** SimHVAC: Maximum iterations (20) exceeded for all HVAC loops, at ANNUAL, 04/14 13:00 - 13:15
   **   ~~~   ** The solution for one or more of the Air Loop HVAC systems did not appear to converge
   **   ~~~   ** Air System Named = CENTRAL SYSTEM did not converge for mass flow rate
   **   ~~~   ** Check values should be zero. Most Recent values listed first.
   **   ~~~   ** Demand-to-Supply interface mass flow rate check value iteration history trace: 9.768168E-002,9.768168E-002,9.768168E-002,9.768168E-002,9.768168E-002,9.768168E-002,9.768168E-002,9.768168E-002,9.768168E-002,9.768168E-002,
   **   ~~~   ** Supply-to-demand interface deck 1 mass flow rate check value iteration history trace: 9.768168E-002,9.768168E-002,9.768168E-002,9.768168E-002,9.768168E-002,9.768168E-002,9.768168E-002,9.768168E-002,9.768168E-002,9.768168E-002,
   **   ~~~   ** Air System Named = CENTRAL SYSTEM did not converge for energy
   **   ~~~   ** Check values should be zero. Most Recent values listed first.
   **   ~~~   ** Demand-to-Supply interface energy check value iteration history trace: 2304.035320,2304.035320,2304.035321,2304.035322,2304.035322,2304.035323,2304.035324,2304.035324,2304.035325,2304.035326,
   **   ~~~   ** Supply-to-demand interface deck 1 energy check value iteration history trace: 1229.925735,1229.925735,1229.925735,1229.925736,1229.925736,1229.925736,1229.925737,1229.925737,1229.925737,1229.925738,
   ** Warning ** SimHVAC: Maximum iterations (20) exceeded for all HVAC loops, at ANNUAL, 11/11 09:30 - 09:45
   **   ~~~   ** The solution for one or more of the Air Loop HVAC systems did not appear to converge
   **   ~~~   ** Air System Named = CENTRAL SYSTEM did not converge for mass flow rate
   **   ~~~   ** Check values should be zero. Most Recent values listed first.
   **   ~~~   ** Demand-to-Supply interface mass flow rate check value iteration history trace: 4.683842E-002,4.683842E-002,4.683842E-002,4.683842E-002,4.683842E-002,4.683842E-002,4.683842E-002,4.683842E-002,4.683842E-002,4.683842E-002,
   **   ~~~   ** Supply-to-demand interface deck 1 mass flow rate check value iteration history trace: 4.683842E-002,4.683842E-002,4.683842E-002,4.683842E-002,4.683842E-002,4.683842E-002,4.683842E-002,4.683842E-002,4.683842E-002,4.683842E-002,
   **   ~~~   ** Air System Named = CENTRAL SYSTEM did not converge for energy
   **   ~~~   ** Check values should be zero. Most Recent values listed first.
   **   ~~~   ** Demand-to-Supply interface energy check value iteration history trace: 929.012781,929.012781,929.012781,929.012781,929.012781,929.012781,929.012781,929.012781,929.012781,929.012781,
   **   ~~~   ** Supply-to-demand interface deck 1 energy check value iteration history trace: 1711.679116,1711.679116,1711.679116,1711.679116,1711.679116,1711.679116,1711.679116,1711.679115,1711.679115,1711.679115,
   ** Warning ** SimHVAC: Maximum iterations (20) exceeded for all HVAC loops, at ANNUAL, 11/30 11:15 - 11:30
   **   ~~~   ** The solution for one or more of the Air Loop HVAC systems did not appear to converge
   **   ~~~   ** Air System Named = CENTRAL SYSTEM did not converge for mass flow rate
   **   ~~~   ** Check values should be zero. Most Recent values listed first.
   **   ~~~   ** Demand-to-Supply interface mass flow rate check value iteration history trace: 4.703481E-002,4.703481E-002,4.703481E-002,4.703481E-002,4.703481E-002,4.703481E-002,4.703481E-002,4.703481E-002,4.703481E-002,4.703481E-002,
   **   ~~~   ** Supply-to-demand interface deck 1 mass flow rate check value iteration history trace: 4.703481E-002,4.703481E-002,4.703481E-002,4.703481E-002,4.703481E-002,4.703481E-002,4.703481E-002,4.703481E-002,4.703481E-002,4.703481E-002,
   **   ~~~   ** Air System Named = CENTRAL SYSTEM did not converge for energy
   **   ~~~   ** Check values should be zero. Most Recent values listed first.
   **   ~~~   ** Demand-to-Supply interface energy check value iteration history trace: 932.977204,932.977204,932.977204,932.977203,932.977203,932.977203,932.977203,932.977203,932.977203,932.977203,
   **   ~~~   ** Supply-to-demand interface deck 1 energy check value iteration history trace: 1705.381007,1705.381007,1705.381007,1705.381007,1705.381007,1705.381007,1705.381006,1705.381006,1705.381006,1705.381006,
   ** Warning ** SimHVAC: Maximum iterations (20) exceeded for all HVAC loops, at ANNUAL, 12/08 23:55 - 24:00
   **   ~~~   ** The solution for one or more of the Air Loop HVAC systems did not appear to converge
   **   ~~~   ** Air System Named = CENTRAL SYSTEM did not converge for mass flow rate
   **   ~~~   ** Check values should be zero. Most Recent values listed first.
   **   ~~~   ** Demand-to-Supply interface mass flow rate check value iteration history trace: 7.980792E-002,7.980792E-002,7.980792E-002,7.980792E-002,7.980792E-002,7.980792E-002,7.980792E-002,7.980792E-002,7.980792E-002,7.980792E-002,
   **   ~~~   ** Supply-to-demand interface deck 1 mass flow rate check value iteration history trace: 7.980792E-002,7.980792E-002,7.980792E-002,7.980792E-002,7.980792E-002,7.980792E-002,7.980792E-002,7.980792E-002,7.980792E-002,7.980792E-002,
   **   ~~~   ** Air System Named = CENTRAL SYSTEM did not converge for energy
   **   ~~~   ** Check values should be zero. Most Recent values listed first.
   **   ~~~   ** Demand-to-Supply interface energy check value iteration history trace: 1492.337783,1492.337783,1492.337783,1492.337783,1492.337783,1492.337783,1492.337783,1492.337783,1492.337783,1492.337783,
   **   ~~~   ** Supply-to-demand interface deck 1 energy check value iteration history trace: 2311.793450,2311.793450,2311.793450,2311.793450,2311.793449,2311.793449,2311.793449,2311.793449,2311.793449,2311.793449,
   ** Warning ** SimHVAC: Maximum iterations (20) exceeded for all HVAC loops, at ANNUAL, 12/22 00:15 - 00:22
   **   ~~~   ** The solution for one or more of the Air Loop HVAC systems did not appear to converge
   **   ~~~   ** Air System Named = CENTRAL SYSTEM did not converge for mass flow rate
   **   ~~~   ** Check values should be zero. Most Recent values listed first.
   **   ~~~   ** Demand-to-Supply interface mass flow rate check value iteration history trace: 5.149304E-002,5.149304E-002,5.149304E-002,5.149304E-002,5.149304E-002,5.149304E-002,5.149304E-002,5.149304E-002,5.149304E-002,5.149304E-002,
   **   ~~~   ** Supply-to-demand interface deck 1 mass flow rate check value iteration history trace: 5.149304E-002,5.149304E-002,5.149304E-002,5.149304E-002,5.149304E-002,5.149304E-002,5.149304E-002,5.149304E-002,5.149304E-002,5.149304E-002,
   **   ~~~   ** Air System Named = CENTRAL SYSTEM did not converge for energy
   **   ~~~   ** Check values should be zero. Most Recent values listed first.
   **   ~~~   ** Demand-to-Supply interface energy check value iteration history trace: 963.098496,963.098496,963.098496,963.098496,963.098496,963.098496,963.098496,963.098496,963.098496,963.098496,
   **   ~~~   ** Supply-to-demand interface deck 1 energy check value iteration history trace: 1717.296111,1717.296111,1717.296111,1717.296111,1717.296111,1717.296111,1717.296111,1717.296110,1717.296110,1717.296110,
   ** Warning ** SimHVAC: Maximum iterations (20) exceeded for all HVAC loops, at ANNUAL, 12/29 07:45 - 08:00
   **   ~~~   ** The solution for one or more of the Air Loop HVAC systems did not appear to converge
   **   ~~~   ** Air System Named = CENTRAL SYSTEM did not converge for mass flow rate
   **   ~~~   ** Check values should be zero. Most Recent values listed first.
   **   ~~~   ** Demand-to-Supply interface mass flow rate check value iteration history trace: 4.420615E-002,4.420615E-002,4.420615E-002,4.420615E-002,4.420615E-002,4.420615E-002,4.420615E-002,4.420615E-002,4.420615E-002,4.420615E-002,
   **   ~~~   ** Supply-to-demand interface deck 1 mass flow rate check value iteration history trace: 4.420615E-002,4.420615E-002,4.420615E-002,4.420615E-002,4.420615E-002,4.420615E-002,4.420615E-002,4.420615E-002,4.420615E-002,4.420615E-002,
   **   ~~~   ** Air System Named = CENTRAL SYSTEM did not converge for energy
   **   ~~~   ** Check values should be zero. Most Recent values listed first.
   **   ~~~   ** Demand-to-Supply interface energy check value iteration history trace: 872.907819,872.907819,872.907819,872.907818,872.907818,872.907818,872.907818,872.907818,872.907818,872.907818,
   **   ~~~   ** Supply-to-demand interface deck 1 energy check value iteration history trace: 1567.547275,1567.547275,1567.547275,1567.547275,1567.547275,1567.547275,1567.547275,1567.547275,1567.547275,1567.547275,
   ** Warning ** SimHVAC: Maximum iterations (20) exceeded for all HVAC loops, at ANNUAL, 12/30 09:15 - 09:30
   **   ~~~   ** The solution for one or more of the Air Loop HVAC systems did not appear to converge
   **   ~~~   ** Air System Named = CENTRAL SYSTEM did not converge for mass flow rate
   **   ~~~   ** Check values should be zero. Most Recent values listed first.
   **   ~~~   ** Demand-to-Supply interface mass flow rate check value iteration history trace: 5.972610E-002,5.972610E-002,5.972610E-002,5.972610E-002,5.972610E-002,5.972610E-002,5.972610E-002,5.972610E-002,5.972610E-002,5.972610E-002,
   **   ~~~   ** Supply-to-demand interface deck 1 mass flow rate check value iteration history trace: 5.972610E-002,5.972610E-002,5.972610E-002,5.972610E-002,5.972610E-002,5.972610E-002,5.972610E-002,5.972610E-002,5.972610E-002,5.972610E-002,
   **   ~~~   ** Air System Named = CENTRAL SYSTEM did not converge for energy
   **   ~~~   ** Check values should be zero. Most Recent values listed first.
   **   ~~~   ** Demand-to-Supply interface energy check value iteration history trace: 1184.141631,1184.141631,1184.141631,1184.141631,1184.141631,1184.141631,1184.141631,1184.141631,1184.141631,1184.141631,
   **   ~~~   ** Supply-to-demand interface deck 1 energy check value iteration history trace: 2061.746052,2061.746052,2061.746052,2061.746051,2061.746051,2061.746051,2061.746051,2061.746051,2061.746051,2061.746051,
   ************* Simulation Error Summary *************
   ** Warning ** The following Report Variables were requested but not generated -- check.rdd file
   **   ~~~   ** Either the IDF did not contain these elements, the variable name is misspelled,
   **   ~~~   ** or the requested variable is an advanced output which requires Output : Diagnostics, DisplayAdvancedReportVariables;
   ************* Key=*, VarName=BASEBOARD TOTAL HEATING ENERGY, Frequency=
   ************* Key=*, VarName=WATER HEATER NATURALGAS ENERGY, Frequency=
   ************* Key=*, VarName=COOLING COIL TOTAL HEATING ENERGY, Frequency=
   ************* There are 34 unused schedules in input.
   ************* There are 388 unused week schedules in input.
   ************* There are 396 unused day schedules in input.
   ************* Use Output:Diagnostics,DisplayUnusedSchedules; to see them.
   *************
   ************* ===== Recurring Error Summary =====
   ************* The following recurring error messages occurred.
   *************
   *************  ** Warning ** "TOTAL HOT WATER LOAD" - Target water temperature should be less than or equal to the hot water temperature error continues...
   *************  **   ~~~   **   This error occurred 60853 total times;
   *************  **   ~~~   **   during Warmup 0 times;
   *************  **   ~~~   **   during Sizing 0 times.
   *************  **   ~~~   **   Max=6.630841  Min=9.955918E-004
   *************
   *************
   ************* ===== Final Error Summary =====
   ************* The following error categories occurred.  Consider correcting or noting.
   ************* Loads Initialization did not Converge
   ************* ..1) very high thermal mass such as very thick concrete (solution: increase max number of warmup
   ************* ..   days in the BUILDING object);
   ************* ..2) moderate mass and inadequate space conditioning such that the building keeps getting warmer
   ************* ..   and warmer on successive days (solution: add HVAC, check building thermal properties,
   ************* ..   check if infiltration is included, make sure HVAC properly controlled);
   ************* ..3) a soil layer modeled below the concrete slab - (solution remove this layer and read about
   ************* ..   ground temperatures in the Auxiliary Programs document).
   ************* ..4) unreasonable (too small) limits in the BUILDING object for temperature (.4 default) or
   ************* ..   loads tolerances (.04 default)
   ************* Nominally Unused Constructions
   ************* ..The nominally unused constructions warning is provided to alert you to potential conditions that can cause
   ************* ..extra time during simulation. Each construction is calculated by the algorithm indicated in the HeatBalanceAlgorithm
   ************* ..object. You may remove the constructions indicated (when you use the DisplayExtraWarnings option).
   *************
   ************* EnergyPlus Warmup Error Summary. During Warmup: 1 Warning; 2 Severe Errors.
   ************* EnergyPlus Sizing Error Summary. During Sizing: 4 Warning; 0 Severe Errors.
   ************* EnergyPlus Completed Successfully-- 60883 Warning; 2 Severe Errors; Elapsed Time=00hr 01min 38.69sec
