Program Version,EnergyPlus, Version 22.2.0-c249759bad, YMD=2023.09.01 19:47,
   ************* Beginning Zone Sizing Calculations
   ** Warning ** ProcessScheduleInput: Schedule:Constant="ALWAYS ON DISCRETE", Schedule Type Limits Name="ONOFF" not found -- will not be validated
   ** Warning ** Foundation:Kiva="KIVA FOUNDATION", no Interior Horizontal Insulation Material Name defined
   **   ~~~   ** Interior Horizontal Insulation Depth will not be used.
   ** Warning ** CheckUsedConstructions: There are 15 nominally unused constructions in input.
   **   ~~~   ** Each Unused construction is shown.
   ************* Construction=INTERIOR FLOOR
   ************* Construction=INTERIOR WINDOW
   ************* Construction=EXTERIOR DOOR
   ************* Construction=INTERIOR DOOR
   ************* Construction=GABLE CONSTRUCTION
   ************* Construction=CRAWL_FLOOR
   ************* Construction=INSULATED PIPE
   ************* Construction=PLAIN PIPE
   ************* Construction=TDD PIPE
   ************* Construction=TDD DOME
   ************* Construction=TDD DIFFUSER
   ************* Construction=CRAWL WALL
   ************* Construction=CEILING-FLOOR-LAYER
   ************* Construction=SLAB CONSTRUCTION W FULL R10 INSULATION
   ************* Construction=SLAB CONSTRUCTION W FULL R5 INSULATION
   ** Warning ** GetDXCoils: Coil:Heating:DX:SingleSpeed="DX_HEATING_COIL" curve values
   **   ~~~   ** ... Defrost Energy Input Ratio Function of Temperature Curve Name = DEFROSTEIR output is not equal to 1.0 (+ or - 10%) at rated conditions.
   **   ~~~   ** ... Curve output at rated conditions = 0.152
   ************* Beginning System Sizing Calculations
   ************* Beginning Plant Sizing Calculations
   ** Warning ** Coil:WaterHeating:AirToWaterHeatPump:Wrapped "HEAT PUMP WATER HEATER EVAPORATOR": Rated air volume flow rate per watt of rated total water heating capacity is out of range
   **   ~~~   ** Min Rated Vol Flow Per Watt=[4.027E-005], Rated Vol Flow Per Watt=[1.510E-004], Max Rated Vol Flow Per Watt=[8.056E-005]. See Input-Output Reference Manual for valid range.
   ************* SizeFan: : Potential issue with equipment sizing for Fan:OnOff HEAT PUMP WATER HEATER FAN
   **   ~~~   ** User-Specified Maximum Flow Rate [m3/s] = 0.22653
   **   ~~~   ** differs from Design Size Maximum Flow Rate [m3/s] = 7.55250E-002
   **   ~~~   ** This may, or may not, indicate mismatched component sizes.
   **   ~~~   ** Verify that the value entered is intended and is consistent with other components.
   ** Warning ** Water heater = WATER HEATER TANK:  Recovery Efficiency and Energy Factor could not be calculated during the test for standard ratings
   **   ~~~   ** Setpoint was never recovered and/or heater never turned on
   ** Warning ** Check input. Pump nominal power or motor efficiency is set to 0, for pump=MAINS PRESSURE
   ** Warning ** Output:Meter: invalid Key Name="ELECTRIC_RANGE:INTERIOREQUIPMENT:ELECTRICITY" - not found.
   ** Warning ** Output:Meter: invalid Key Name="ELECTRIC_DRYER:INTERIOREQUIPMENT:ELECTRICITY" - not found.
   ** Warning ** Output:Meter: invalid Key Name="HEATRECOVERY:ELECTRICITY" - not found.
   ** Warning ** Output:Meter: invalid Key Name="HEATING:NATURALGAS" - not found.
   ** Warning ** Output:Meter: invalid Key Name="WATERSYSTEMS:NATURALGAS" - not found.
   ** Warning ** Output:Meter: invalid Key Name="PROPANE:FACILITY" - not found.
   ** Warning ** Output:Meter: invalid Key Name="HEATING:PROPANE" - not found.
   ************* Testing Individual Branch Integrity
   ************* All Branches passed integrity testing
   ************* Testing Individual Supply Air Path Integrity
   ************* All Supply Air Paths passed integrity testing
   ************* Testing Individual Return Air Path Integrity
   ************* All Return Air Paths passed integrity testing
   ************* No node connection errors were found.
   ************* Beginning Simulation
   ** Warning ** AirflowNetwork::Solver::validate_distribution: Heat pump water heater is simulated along with an AirflowNetwork but is not included in the AirflowNetwork.
   ** Warning ** CalcEquipmentFlowRates: "TOTAL HOT WATER LOAD" - Target water temperature is greater than the hot water temperature by (3.45 C)
   **   ~~~   **  Environment=EXTREME_WINTER, at Simulation time=12/22 06:00 - 06:15
   **   ~~~   ** ...target water temperature     = 53.33 C
   **   ~~~   ** ...hot water temperature        = 49.88 C
   **   ~~~   ** ...Target water temperature should be less than or equal to the hot water temperature. Verify temperature setpoints and schedules.
   ** Warning ** SimHVAC: Maximum iterations (20) exceeded for all HVAC loops, at ANNUAL, 01/01 12:30 - 12:45
   **   ~~~   ** The solution for one or more of the Air Loop HVAC systems did not appear to converge
   **   ~~~   ** Air System Named = CENTRAL SYSTEM did not converge for mass flow rate
   **   ~~~   ** Check values should be zero. Most Recent values listed first.
   **   ~~~   ** Demand-to-Supply interface mass flow rate check value iteration history trace: 8.513526E-002,8.513526E-002,8.513526E-002,8.513526E-002,8.513526E-002,8.513526E-002,8.513526E-002,8.513526E-002,8.513526E-002,8.513526E-002,
   **   ~~~   ** Supply-to-demand interface deck 1 mass flow rate check value iteration history trace: 8.513526E-002,8.513526E-002,8.513526E-002,8.513526E-002,8.513526E-002,8.513526E-002,8.513526E-002,8.513526E-002,8.513526E-002,8.513526E-002,
   **   ~~~   ** Air System Named = CENTRAL SYSTEM did not converge for energy
   **   ~~~   ** Check values should be zero. Most Recent values listed first.
   **   ~~~   ** Demand-to-Supply interface energy check value iteration history trace: 1684.618303,1684.618303,1684.618303,1684.618303,1684.618303,1684.618303,1684.618303,1684.618302,1684.618302,1684.618302,
   **   ~~~   ** Supply-to-demand interface deck 1 energy check value iteration history trace: 2587.604922,2587.604922,2587.604922,2587.604922,2587.604922,2587.604922,2587.604921,2587.604921,2587.604921,2587.604921,
   ** Warning ** SimHVAC: Maximum iterations (20) exceeded for all HVAC loops, at ANNUAL, 01/04 15:00 - 15:15
   **   ~~~   ** The solution for one or more of the Air Loop HVAC systems did not appear to converge
   **   ~~~   ** Air System Named = CENTRAL SYSTEM did not converge for mass flow rate
   **   ~~~   ** Check values should be zero. Most Recent values listed first.
   **   ~~~   ** Demand-to-Supply interface mass flow rate check value iteration history trace: 7.838689E-002,7.838689E-002,7.838689E-002,7.838689E-002,7.838689E-002,7.838689E-002,7.838689E-002,7.838689E-002,7.838689E-002,7.838689E-002,
   **   ~~~   ** Supply-to-demand interface deck 1 mass flow rate check value iteration history trace: 7.838689E-002,7.838689E-002,7.838689E-002,7.838689E-002,7.838689E-002,7.838689E-002,7.838689E-002,7.838689E-002,7.838689E-002,7.838689E-002,
   **   ~~~   ** Air System Named = CENTRAL SYSTEM did not converge for energy
   **   ~~~   ** Check values should be zero. Most Recent values listed first.
   **   ~~~   ** Demand-to-Supply interface energy check value iteration history trace: 1552.207513,1552.207513,1552.207513,1552.207513,1552.207513,1552.207513,1552.207513,1552.207513,1552.207512,1552.207512,
   **   ~~~   ** Supply-to-demand interface deck 1 energy check value iteration history trace: 2331.106088,2331.106088,2331.106088,2331.106088,2331.106088,2331.106088,2331.106087,2331.106087,2331.106087,2331.106087,
   ** Warning ** SimHVAC: Maximum iterations (20) exceeded for all HVAC loops, at ANNUAL, 02/11 03:15 - 03:30
   **   ~~~   ** The solution for one or more of the Air Loop HVAC systems did not appear to converge
   **   ~~~   ** Air System Named = CENTRAL SYSTEM did not converge for mass flow rate
   **   ~~~   ** Check values should be zero. Most Recent values listed first.
   **   ~~~   ** Demand-to-Supply interface mass flow rate check value iteration history trace: 4.793647E-002,4.793647E-002,4.793647E-002,4.793647E-002,4.793647E-002,4.793647E-002,4.793647E-002,4.793647E-002,4.793647E-002,4.793647E-002,
   **   ~~~   ** Supply-to-demand interface deck 1 mass flow rate check value iteration history trace: 4.793647E-002,4.793647E-002,4.793647E-002,4.793647E-002,4.793647E-002,4.793647E-002,4.793647E-002,4.793647E-002,4.793647E-002,4.793647E-002,
   **   ~~~   ** Air System Named = CENTRAL SYSTEM did not converge for energy
   **   ~~~   ** Check values should be zero. Most Recent values listed first.
   **   ~~~   ** Demand-to-Supply interface energy check value iteration history trace: 895.965506,895.965506,895.965506,895.965506,895.965506,895.965506,895.965506,895.965506,895.965506,895.965506,
   **   ~~~   ** Supply-to-demand interface deck 1 energy check value iteration history trace: 1596.982420,1596.982420,1596.982420,1596.982420,1596.982420,1596.982420,1596.982420,1596.982420,1596.982420,1596.982420,
   ** Warning ** SimHVAC: Maximum iterations (20) exceeded for all HVAC loops, at ANNUAL, 02/15 18:33 - 18:36
   **   ~~~   ** The solution for one or more of the Air Loop HVAC systems did not appear to converge
   **   ~~~   ** Air System Named = CENTRAL SYSTEM did not converge for mass flow rate
   **   ~~~   ** Check values should be zero. Most Recent values listed first.
   **   ~~~   ** Demand-to-Supply interface mass flow rate check value iteration history trace: 9.390776E-002,9.390776E-002,9.390776E-002,9.390776E-002,9.390776E-002,9.390776E-002,9.390776E-002,9.390776E-002,9.390776E-002,9.390776E-002,
   **   ~~~   ** Supply-to-demand interface deck 1 mass flow rate check value iteration history trace: 9.390776E-002,9.390776E-002,9.390776E-002,9.390776E-002,9.390776E-002,9.390776E-002,9.390776E-002,9.390776E-002,9.390776E-002,9.390776E-002,
   **   ~~~   ** Air System Named = CENTRAL SYSTEM did not converge for energy
   **   ~~~   ** Check values should be zero. Most Recent values listed first.
   **   ~~~   ** Demand-to-Supply interface energy check value iteration history trace: 1858.166759,1858.166759,1858.166759,1858.166759,1858.166759,1858.166759,1858.166759,1858.166758,1858.166758,1858.166758,
   **   ~~~   ** Supply-to-demand interface deck 1 energy check value iteration history trace: 2736.751975,2736.751975,2736.751975,2736.751975,2736.751974,2736.751974,2736.751974,2736.751974,2736.751973,2736.751973,
   ** Warning ** SimHVAC: Maximum iterations (20) exceeded for all HVAC loops, at ANNUAL, 02/23 14:45 - 15:00
   **   ~~~   ** The solution for one or more of the Air Loop HVAC systems did not appear to converge
   **   ~~~   ** Air System Named = CENTRAL SYSTEM did not converge for mass flow rate
   **   ~~~   ** Check values should be zero. Most Recent values listed first.
   **   ~~~   ** Demand-to-Supply interface mass flow rate check value iteration history trace: 4.201636E-002,4.201636E-002,4.201636E-002,4.201636E-002,4.201636E-002,4.201636E-002,4.201636E-002,4.201636E-002,4.201636E-002,4.201636E-002,
   **   ~~~   ** Supply-to-demand interface deck 1 mass flow rate check value iteration history trace: 4.201636E-002,4.201636E-002,4.201636E-002,4.201636E-002,4.201636E-002,4.201636E-002,4.201636E-002,4.201636E-002,4.201636E-002,4.201636E-002,
   **   ~~~   ** Air System Named = CENTRAL SYSTEM did not converge for energy
   **   ~~~   ** Check values should be zero. Most Recent values listed first.
   **   ~~~   ** Demand-to-Supply interface energy check value iteration history trace: 816.157464,816.157464,816.157464,816.157464,816.157464,816.157464,816.157464,816.157464,816.157464,816.157464,
   **   ~~~   ** Supply-to-demand interface deck 1 energy check value iteration history trace: 1416.818655,1416.818655,1416.818655,1416.818655,1416.818655,1416.818655,1416.818655,1416.818655,1416.818655,1416.818655,
   ** Warning ** SimHVAC: Maximum iterations (20) exceeded for all HVAC loops, at ANNUAL, 03/07 06:45 - 07:00
   **   ~~~   ** The solution for one or more of the Air Loop HVAC systems did not appear to converge
   **   ~~~   ** Air System Named = CENTRAL SYSTEM did not converge for mass flow rate
   **   ~~~   ** Check values should be zero. Most Recent values listed first.
   **   ~~~   ** Demand-to-Supply interface mass flow rate check value iteration history trace: 6.221592E-002,6.221592E-002,6.221592E-002,6.221592E-002,6.221592E-002,6.221592E-002,6.221592E-002,6.221592E-002,6.221592E-002,6.221592E-002,
   **   ~~~   ** Supply-to-demand interface deck 1 mass flow rate check value iteration history trace: 6.221592E-002,6.221592E-002,6.221592E-002,6.221592E-002,6.221592E-002,6.221592E-002,6.221592E-002,6.221592E-002,6.221592E-002,6.221592E-002,
   **   ~~~   ** Air System Named = CENTRAL SYSTEM did not converge for energy
   **   ~~~   ** Check values should be zero. Most Recent values listed first.
   **   ~~~   ** Demand-to-Supply interface energy check value iteration history trace: 1232.862219,1232.862219,1232.862219,1232.862219,1232.862219,1232.862219,1232.862218,1232.862218,1232.862218,1232.862218,
   **   ~~~   ** Supply-to-demand interface deck 1 energy check value iteration history trace: 2172.147938,2172.147938,2172.147938,2172.147938,2172.147938,2172.147938,2172.147938,2172.147938,2172.147938,2172.147938,
   ** Warning ** SimHVAC: Maximum iterations (20) exceeded for all HVAC loops, at ANNUAL, 03/18 11:08 - 11:15
   **   ~~~   ** The solution for one or more of the Air Loop HVAC systems did not appear to converge
   **   ~~~   ** Air System Named = CENTRAL SYSTEM did not converge for mass flow rate
   **   ~~~   ** Check values should be zero. Most Recent values listed first.
   **   ~~~   ** Demand-to-Supply interface mass flow rate check value iteration history trace: 5.693087E-002,5.693087E-002,5.693087E-002,5.693087E-002,5.693087E-002,5.693087E-002,5.693087E-002,5.693087E-002,5.693087E-002,5.693087E-002,
   **   ~~~   ** Supply-to-demand interface deck 1 mass flow rate check value iteration history trace: 5.693087E-002,5.693087E-002,5.693087E-002,5.693087E-002,5.693087E-002,5.693087E-002,5.693087E-002,5.693087E-002,5.693087E-002,5.693087E-002,
   **   ~~~   ** Air System Named = CENTRAL SYSTEM did not converge for energy
   **   ~~~   ** Check values should be zero. Most Recent values listed first.
   **   ~~~   ** Demand-to-Supply interface energy check value iteration history trace: 1122.641640,1122.641640,1122.641640,1122.641640,1122.641640,1122.641640,1122.641640,1122.641640,1122.641640,1122.641640,
   **   ~~~   ** Supply-to-demand interface deck 1 energy check value iteration history trace: 2037.093341,2037.093340,2037.093340,2037.093340,2037.093340,2037.093340,2037.093340,2037.093340,2037.093340,2037.093340,
   ** Warning ** SimHVAC: Maximum iterations (20) exceeded for all HVAC loops, at ANNUAL, 03/30 09:30 - 09:45
   **   ~~~   ** The solution for one or more of the Air Loop HVAC systems did not appear to converge
   **   ~~~   ** Air System Named = CENTRAL SYSTEM did not converge for mass flow rate
   **   ~~~   ** Check values should be zero. Most Recent values listed first.
   **   ~~~   ** Demand-to-Supply interface mass flow rate check value iteration history trace: 5.473053E-002,5.473053E-002,5.473053E-002,5.473053E-002,5.473053E-002,5.473053E-002,5.473053E-002,5.473053E-002,5.473053E-002,5.473053E-002,
   **   ~~~   ** Supply-to-demand interface deck 1 mass flow rate check value iteration history trace: 5.473053E-002,5.473053E-002,5.473053E-002,5.473053E-002,5.473053E-002,5.473053E-002,5.473053E-002,5.473053E-002,5.473053E-002,5.473053E-002,
   **   ~~~   ** Air System Named = CENTRAL SYSTEM did not converge for energy
   **   ~~~   ** Check values should be zero. Most Recent values listed first.
   **   ~~~   ** Demand-to-Supply interface energy check value iteration history trace: 1084.566111,1084.566111,1084.566111,1084.566111,1084.566111,1084.566111,1084.566111,1084.566111,1084.566111,1084.566111,
   **   ~~~   ** Supply-to-demand interface deck 1 energy check value iteration history trace: 1949.648122,1949.648122,1949.648122,1949.648122,1949.648122,1949.648122,1949.648122,1949.648122,1949.648121,1949.648121,
   ** Warning ** SimHVAC: Maximum iterations (20) exceeded for all HVAC loops, at ANNUAL, 04/08 07:15 - 07:30
   **   ~~~   ** The solution for one or more of the Air Loop HVAC systems did not appear to converge
   **   ~~~   ** Air System Named = CENTRAL SYSTEM did not converge for mass flow rate
   **   ~~~   ** Check values should be zero. Most Recent values listed first.
   **   ~~~   ** Demand-to-Supply interface mass flow rate check value iteration history trace: 3.390841E-002,3.390841E-002,3.390841E-002,3.390841E-002,3.390841E-002,3.390841E-002,3.390841E-002,3.390841E-002,3.390841E-002,3.390841E-002,
   **   ~~~   ** Supply-to-demand interface deck 1 mass flow rate check value iteration history trace: 3.390841E-002,3.390841E-002,3.390841E-002,3.390841E-002,3.390841E-002,3.390841E-002,3.390841E-002,3.390841E-002,3.390841E-002,3.390841E-002,
   **   ~~~   ** Air System Named = CENTRAL SYSTEM did not converge for energy
   **   ~~~   ** Check values should be zero. Most Recent values listed first.
   **   ~~~   ** Demand-to-Supply interface energy check value iteration history trace: 660.383561,660.383561,660.383561,660.383561,660.383560,660.383560,660.383560,660.383560,660.383560,660.383560,
   **   ~~~   ** Supply-to-demand interface deck 1 energy check value iteration history trace: 1189.022102,1189.022102,1189.022102,1189.022101,1189.022101,1189.022101,1189.022101,1189.022101,1189.022101,1189.022101,
   ** Warning ** SimHVAC: Maximum iterations (20) exceeded for all HVAC loops, at ANNUAL, 04/14 07:34 - 07:38
   **   ~~~   ** The solution for one or more of the Air Loop HVAC systems did not appear to converge
   **   ~~~   ** Air System Named = CENTRAL SYSTEM did not converge for mass flow rate
   **   ~~~   ** Check values should be zero. Most Recent values listed first.
   **   ~~~   ** Demand-to-Supply interface mass flow rate check value iteration history trace: 6.669178E-002,6.669178E-002,6.669178E-002,6.669178E-002,6.669178E-002,6.669178E-002,6.669178E-002,6.669178E-002,6.669178E-002,6.669178E-002,
   **   ~~~   ** Supply-to-demand interface deck 1 mass flow rate check value iteration history trace: 6.669178E-002,6.669178E-002,6.669178E-002,6.669178E-002,6.669178E-002,6.669178E-002,6.669178E-002,6.669178E-002,6.669178E-002,6.669178E-002,
   **   ~~~   ** Air System Named = CENTRAL SYSTEM did not converge for energy
   **   ~~~   ** Check values should be zero. Most Recent values listed first.
   **   ~~~   ** Demand-to-Supply interface energy check value iteration history trace: 1321.566363,1321.566363,1321.566363,1321.566363,1321.566363,1321.566363,1321.566363,1321.566363,1321.566363,1321.566363,
   **   ~~~   ** Supply-to-demand interface deck 1 energy check value iteration history trace: 2325.158307,2325.158307,2325.158306,2325.158306,2325.158306,2325.158306,2325.158306,2325.158306,2325.158306,2325.158306,
   ** Warning ** SimHVAC: Maximum iterations (20) exceeded for all HVAC loops, at ANNUAL, 04/20 09:00 - 09:15
   **   ~~~   ** The solution for one or more of the Air Loop HVAC systems did not appear to converge
   **   ~~~   ** Air System Named = CENTRAL SYSTEM did not converge for mass flow rate
   **   ~~~   ** Check values should be zero. Most Recent values listed first.
   **   ~~~   ** Demand-to-Supply interface mass flow rate check value iteration history trace: 5.999896E-002,5.999896E-002,5.999896E-002,5.999896E-002,5.999896E-002,5.999896E-002,5.999896E-002,5.999896E-002,5.999896E-002,5.999896E-002,
   **   ~~~   ** Supply-to-demand interface deck 1 mass flow rate check value iteration history trace: 5.999896E-002,5.999896E-002,5.999896E-002,5.999896E-002,5.999896E-002,5.999896E-002,5.999896E-002,5.999896E-002,5.999896E-002,5.999896E-002,
   **   ~~~   ** Air System Named = CENTRAL SYSTEM did not converge for energy
   **   ~~~   ** Check values should be zero. Most Recent values listed first.
   **   ~~~   ** Demand-to-Supply interface energy check value iteration history trace: 1187.076751,1187.076751,1187.076751,1187.076751,1187.076750,1187.076750,1187.076750,1187.076750,1187.076750,1187.076749,
   **   ~~~   ** Supply-to-demand interface deck 1 energy check value iteration history trace: 2106.127380,2106.127380,2106.127379,2106.127379,2106.127378,2106.127378,2106.127378,2106.127377,2106.127377,2106.127377,
   **   ~~~   ** Node named ZONE INLET NODE shows oscillating temperatures across iterations with a repeated value of 34.933515
   **   ~~~   ** Node named ZONE INLET NODE temperature [C] iteration history trace (most recent first): 34.933515,34.933515,34.933515,34.933515,34.933514,34.933514,34.933514,34.933514,34.933513,34.933513,
   ** Warning ** SimHVAC: Maximum iterations (20) exceeded for all HVAC loops, at ANNUAL, 04/28 08:23 - 08:25
   **   ~~~   ** The solution for one or more of the Air Loop HVAC systems did not appear to converge
   **   ~~~   ** Air System Named = CENTRAL SYSTEM did not converge for mass flow rate
   **   ~~~   ** Check values should be zero. Most Recent values listed first.
   **   ~~~   ** Demand-to-Supply interface mass flow rate check value iteration history trace: 6.133031E-002,6.133031E-002,6.133031E-002,6.133031E-002,6.133031E-002,6.133031E-002,6.133031E-002,6.133031E-002,6.133031E-002,6.133031E-002,
   **   ~~~   ** Supply-to-demand interface deck 1 mass flow rate check value iteration history trace: 6.133031E-002,6.133031E-002,6.133031E-002,6.133031E-002,6.133031E-002,6.133031E-002,6.133031E-002,6.133031E-002,6.133031E-002,6.133031E-002,
   **   ~~~   ** Air System Named = CENTRAL SYSTEM did not converge for energy
   **   ~~~   ** Check values should be zero. Most Recent values listed first.
   **   ~~~   ** Demand-to-Supply interface energy check value iteration history trace: 1211.160471,1211.160471,1211.160471,1211.160471,1211.160471,1211.160471,1211.160470,1211.160470,1211.160470,1211.160470,
   **   ~~~   ** Supply-to-demand interface deck 1 energy check value iteration history trace: 2222.132024,2222.132024,2222.132024,2222.132024,2222.132023,2222.132023,2222.132023,2222.132023,2222.132023,2222.132023,
   ** Warning ** SimHVAC: Maximum iterations (20) exceeded for all HVAC loops, at ANNUAL, 05/13 09:10 - 09:15
   **   ~~~   ** The solution for one or more of the Air Loop HVAC systems did not appear to converge
   **   ~~~   ** Air System Named = CENTRAL SYSTEM did not converge for mass flow rate
   **   ~~~   ** Check values should be zero. Most Recent values listed first.
   **   ~~~   ** Demand-to-Supply interface mass flow rate check value iteration history trace: 6.322646E-002,6.322646E-002,6.322646E-002,6.322646E-002,6.322646E-002,6.322646E-002,6.322646E-002,6.322646E-002,6.322646E-002,6.322646E-002,
   **   ~~~   ** Supply-to-demand interface deck 1 mass flow rate check value iteration history trace: 6.322646E-002,6.322646E-002,6.322646E-002,6.322646E-002,6.322646E-002,6.322646E-002,6.322646E-002,6.322646E-002,6.322646E-002,6.322646E-002,
   **   ~~~   ** Air System Named = CENTRAL SYSTEM did not converge for energy
   **   ~~~   ** Check values should be zero. Most Recent values listed first.
   **   ~~~   ** Demand-to-Supply interface energy check value iteration history trace: 1249.063392,1249.063392,1249.063392,1249.063392,1249.063392,1249.063392,1249.063392,1249.063392,1249.063392,1249.063392,
   **   ~~~   ** Supply-to-demand interface deck 1 energy check value iteration history trace: 2250.396188,2250.396188,2250.396188,2250.396188,2250.396188,2250.396188,2250.396188,2250.396188,2250.396188,2250.396188,
   ** Warning ** SimHVAC: Maximum iterations (20) exceeded for all HVAC loops, at ANNUAL, 10/22 10:30 - 10:45
   **   ~~~   ** The solution for one or more of the Air Loop HVAC systems did not appear to converge
   **   ~~~   ** Air System Named = CENTRAL SYSTEM did not converge for mass flow rate
   **   ~~~   ** Check values should be zero. Most Recent values listed first.
   **   ~~~   ** Demand-to-Supply interface mass flow rate check value iteration history trace: 6.226253E-002,6.226253E-002,6.226253E-002,6.226253E-002,6.226253E-002,6.226253E-002,6.226253E-002,6.226253E-002,6.226253E-002,6.226253E-002,
   **   ~~~   ** Supply-to-demand interface deck 1 mass flow rate check value iteration history trace: 6.226253E-002,6.226253E-002,6.226253E-002,6.226253E-002,6.226253E-002,6.226253E-002,6.226253E-002,6.226253E-002,6.226253E-002,6.226253E-002,
   **   ~~~   ** Air System Named = CENTRAL SYSTEM did not converge for energy
   **   ~~~   ** Check values should be zero. Most Recent values listed first.
   **   ~~~   ** Demand-to-Supply interface energy check value iteration history trace: 1217.835475,1217.835475,1217.835475,1217.835475,1217.835475,1217.835475,1217.835475,1217.835475,1217.835475,1217.835475,
   **   ~~~   ** Supply-to-demand interface deck 1 energy check value iteration history trace: 2229.790423,2229.790423,2229.790423,2229.790423,2229.790423,2229.790423,2229.790423,2229.790423,2229.790423,2229.790422,
   ** Warning ** WetBulb not converged after 101 iterations(PsyTwbFnTdbWPb)
   **   ~~~   **  Routine=Unknown, Environment=ANNUAL, at Simulation time=12/14 02:30 - 02:45
   **   ~~~   **  Input Temperature = 2.80
   **   ~~~   **  Input Humidity Ratio= 2.747995E-003
   **   ~~~   **  Input Pressure = 98543.50
   **   ~~~   **  Resultant Temperature= 3.00E-002
   ************* Simulation Error Summary *************
   ** Warning ** The following Report Variables were requested but not generated -- check.rdd file
   **   ~~~   ** Either the IDF did not contain these elements, the variable name is misspelled,
   **   ~~~   ** or the requested variable is an advanced output which requires Output : Diagnostics, DisplayAdvancedReportVariables;
   ************* Key=*, VarName=BASEBOARD TOTAL HEATING ENERGY, Frequency=
   ************* Key=*, VarName=WATER HEATER NATURALGAS ENERGY, Frequency=
   ************* Key=*, VarName=COOLING COIL TOTAL HEATING ENERGY, Frequency=
   ************* There are 34 unused schedules in input.
   ************* There are 388 unused week schedules in input.
   ************* There are 396 unused day schedules in input.
   ************* Use Output:Diagnostics,DisplayUnusedSchedules; to see them.
   *************
   ************* ===== Recurring Error Summary =====
   ************* The following recurring error messages occurred.
   *************
   *************  ** Warning ** "TOTAL HOT WATER LOAD" - Target water temperature should be less than or equal to the hot water temperature error continues...
   *************  **   ~~~   **   This error occurred 121087 total times;
   *************  **   ~~~   **   during Warmup 0 times;
   *************  **   ~~~   **   during Sizing 0 times.
   *************  **   ~~~   **   Max=12.808793  Min=5.301061E-004
   *************
   *************  ** Warning ** SimHVAC: Exceeding Maximum iterations for all HVAC loops, during ANNUAL continues
   *************  **   ~~~   **   This error occurred 13 total times;
   *************  **   ~~~   **   during Warmup 0 times;
   *************  **   ~~~   **   during Sizing 0 times.
   *************
   *************  ** Warning ** WetBulb not converged after max iterations(PsyTwbFnTdbWPb)
   *************  **   ~~~   **   This error occurred 1 total times;
   *************  **   ~~~   **   during Warmup 0 times;
   *************  **   ~~~   **   during Sizing 0 times.
   *************
   *************
   ************* ===== Final Error Summary =====
   ************* The following error categories occurred.  Consider correcting or noting.
   ************* Nominally Unused Constructions
   ************* ..The nominally unused constructions warning is provided to alert you to potential conditions that can cause
   ************* ..extra time during simulation. Each construction is calculated by the algorithm indicated in the HeatBalanceAlgorithm
   ************* ..object. You may remove the constructions indicated (when you use the DisplayExtraWarnings option).
   *************
   ************* EnergyPlus Warmup Error Summary. During Warmup: 1 Warning; 0 Severe Errors.
   ************* EnergyPlus Sizing Error Summary. During Sizing: 4 Warning; 0 Severe Errors.
   ************* EnergyPlus Completed Successfully-- 121132 Warning; 0 Severe Errors; Elapsed Time=00hr 01min 32.09sec
