Program Version,EnergyPlus, Version 22.2.0-c249759bad, YMD=2023.09.01 15:14,
   ************* Beginning Zone Sizing Calculations
   ** Warning ** ProcessScheduleInput: Schedule:Constant="ALWAYS ON DISCRETE", Schedule Type Limits Name="ONOFF" not found -- will not be validated
   ** Warning ** Foundation:Kiva="KIVA FOUNDATION", no Interior Horizontal Insulation Material Name defined
   **   ~~~   ** Interior Horizontal Insulation Depth will not be used.
   ** Warning ** CheckUsedConstructions: There are 15 nominally unused constructions in input.
   **   ~~~   ** Each Unused construction is shown.
   ************* Construction=INTERIOR FLOOR
   ************* Construction=INTERIOR WINDOW
   ************* Construction=EXTERIOR DOOR
   ************* Construction=INTERIOR DOOR
   ************* Construction=GABLE CONSTRUCTION
   ************* Construction=CRAWL_FLOOR
   ************* Construction=INSULATED PIPE
   ************* Construction=PLAIN PIPE
   ************* Construction=TDD PIPE
   ************* Construction=TDD DOME
   ************* Construction=TDD DIFFUSER
   ************* Construction=CRAWL WALL
   ************* Construction=CEILING-FLOOR-LAYER
   ************* Construction=SLAB CONSTRUCTION W FULL R10 INSULATION
   ************* Construction=SLAB CONSTRUCTION W FULL R5 INSULATION
   ** Warning ** GetDXCoils: Coil:Heating:DX:SingleSpeed="DX_HEATING_COIL" curve values
   **   ~~~   ** ... Defrost Energy Input Ratio Function of Temperature Curve Name = DEFROSTEIR output is not equal to 1.0 (+ or - 10%) at rated conditions.
   **   ~~~   ** ... Curve output at rated conditions = 0.152
   ************* Beginning System Sizing Calculations
   ************* Beginning Plant Sizing Calculations
   ** Warning ** Coil:WaterHeating:AirToWaterHeatPump:Wrapped "HEAT PUMP WATER HEATER EVAPORATOR": Rated air volume flow rate per watt of rated total water heating capacity is out of range
   **   ~~~   ** Min Rated Vol Flow Per Watt=[4.027E-005], Rated Vol Flow Per Watt=[1.386E-004], Max Rated Vol Flow Per Watt=[8.056E-005]. See Input-Output Reference Manual for valid range.
   ** Warning ** Water heater = WATER HEATER TANK:  Recovery Efficiency and Energy Factor could not be calculated during the test for standard ratings
   **   ~~~   ** Setpoint was never recovered and/or heater never turned on
   ** Warning ** Check input. Pump nominal power or motor efficiency is set to 0, for pump=MAINS PRESSURE
   ** Warning ** Output:Meter: invalid Key Name="ELECTRIC_RANGE:INTERIOREQUIPMENT:ELECTRICITY" - not found.
   ** Warning ** Output:Meter: invalid Key Name="ELECTRIC_DRYER:INTERIOREQUIPMENT:ELECTRICITY" - not found.
   ** Warning ** Output:Meter: invalid Key Name="HEATRECOVERY:ELECTRICITY" - not found.
   ** Warning ** Output:Meter: invalid Key Name="HEATING:NATURALGAS" - not found.
   ** Warning ** Output:Meter: invalid Key Name="WATERSYSTEMS:NATURALGAS" - not found.
   ** Warning ** Output:Meter: invalid Key Name="PROPANE:FACILITY" - not found.
   ** Warning ** Output:Meter: invalid Key Name="HEATING:PROPANE" - not found.
   ************* Testing Individual Branch Integrity
   ************* All Branches passed integrity testing
   ************* Testing Individual Supply Air Path Integrity
   ************* All Supply Air Paths passed integrity testing
   ************* Testing Individual Return Air Path Integrity
   ************* All Return Air Paths passed integrity testing
   ************* No node connection errors were found.
   ************* Beginning Simulation
   ** Warning ** AirflowNetwork::Solver::validate_distribution: Heat pump water heater is simulated along with an AirflowNetwork but is not included in the AirflowNetwork.
   ** Warning ** CalcEquipmentFlowRates: "TOTAL HOT WATER LOAD" - Target water temperature is greater than the hot water temperature by (1.66 C)
   **   ~~~   **  Environment=EXTREME_WINTER, at Simulation time=12/22 06:00 - 06:15
   **   ~~~   ** ...target water temperature     = 53.33 C
   **   ~~~   ** ...hot water temperature        = 51.68 C
   **   ~~~   ** ...Target water temperature should be less than or equal to the hot water temperature. Verify temperature setpoints and schedules.
   ** Warning ** SimHVAC: Maximum iterations (20) exceeded for all HVAC loops, at EXTREME_WINTER, 01/02 15:23 - 15:26
   **   ~~~   ** The solution for one or more of the Air Loop HVAC systems did not appear to converge
   **   ~~~   ** Air System Named = CENTRAL SYSTEM did not converge for mass flow rate
   **   ~~~   ** Check values should be zero. Most Recent values listed first.
   **   ~~~   ** Demand-to-Supply interface mass flow rate check value iteration history trace: 0.103192,0.103192,0.103192,0.103192,0.103192,0.103192,0.103192,0.103192,0.103192,0.103192,
   **   ~~~   ** Supply-to-demand interface deck 1 mass flow rate check value iteration history trace: 0.103192,0.103192,0.103192,0.103192,0.103192,0.103192,0.103192,0.103192,0.103192,0.103192,
   **   ~~~   ** Air System Named = CENTRAL SYSTEM did not converge for energy
   **   ~~~   ** Check values should be zero. Most Recent values listed first.
   **   ~~~   ** Demand-to-Supply interface energy check value iteration history trace: 2043.394741,2043.394741,2043.394741,2043.394741,2043.394741,2043.394741,2043.394740,2043.394740,2043.394740,2043.394740,
   **   ~~~   ** Supply-to-demand interface deck 1 energy check value iteration history trace: 3148.402956,3148.402956,3148.402956,3148.402956,3148.402955,3148.402955,3148.402955,3148.402955,3148.402955,3148.402954,
   ** Warning ** SimHVAC: Maximum iterations (20) exceeded for all HVAC loops, at ANNUAL, 02/26 20:45 - 21:00
   **   ~~~   ** The solution for one or more of the Air Loop HVAC systems did not appear to converge
   **   ~~~   ** Air System Named = CENTRAL SYSTEM did not converge for mass flow rate
   **   ~~~   ** Check values should be zero. Most Recent values listed first.
   **   ~~~   ** Demand-to-Supply interface mass flow rate check value iteration history trace: 7.567230E-002,7.567230E-002,7.567230E-002,7.567230E-002,7.567230E-002,7.567230E-002,7.567230E-002,7.567230E-002,7.567230E-002,7.567230E-002,
   **   ~~~   ** Supply-to-demand interface deck 1 mass flow rate check value iteration history trace: 7.567230E-002,7.567230E-002,7.567230E-002,7.567230E-002,7.567230E-002,7.567230E-002,7.567230E-002,7.567230E-002,7.567230E-002,7.567230E-002,
   **   ~~~   ** Air System Named = CENTRAL SYSTEM did not converge for energy
   **   ~~~   ** Check values should be zero. Most Recent values listed first.
   **   ~~~   ** Demand-to-Supply interface energy check value iteration history trace: 1501.519927,1501.519926,1501.519926,1501.519926,1501.519926,1501.519926,1501.519926,1501.519926,1501.519926,1501.519926,
   **   ~~~   ** Supply-to-demand interface deck 1 energy check value iteration history trace: 2603.405647,2603.405647,2603.405647,2603.405646,2603.405646,2603.405646,2603.405646,2603.405646,2603.405646,2603.405646,
   ** Warning ** SimHVAC: Maximum iterations (20) exceeded for all HVAC loops, at ANNUAL, 03/05 17:30 - 17:45
   **   ~~~   ** The solution for one or more of the Air Loop HVAC systems did not appear to converge
   **   ~~~   ** Air System Named = CENTRAL SYSTEM did not converge for mass flow rate
   **   ~~~   ** Check values should be zero. Most Recent values listed first.
   **   ~~~   ** Demand-to-Supply interface mass flow rate check value iteration history trace: 5.774015E-002,5.774015E-002,5.774015E-002,5.774015E-002,5.774015E-002,5.774015E-002,5.774015E-002,5.774015E-002,5.774015E-002,5.774015E-002,
   **   ~~~   ** Supply-to-demand interface deck 1 mass flow rate check value iteration history trace: 5.774015E-002,5.774015E-002,5.774015E-002,5.774015E-002,5.774015E-002,5.774015E-002,5.774015E-002,5.774015E-002,5.774015E-002,5.774015E-002,
   **   ~~~   ** Air System Named = CENTRAL SYSTEM did not converge for energy
   **   ~~~   ** Check values should be zero. Most Recent values listed first.
   **   ~~~   ** Demand-to-Supply interface energy check value iteration history trace: 1143.909083,1143.909083,1143.909083,1143.909082,1143.909082,1143.909082,1143.909082,1143.909082,1143.909082,1143.909082,
   **   ~~~   ** Supply-to-demand interface deck 1 energy check value iteration history trace: 2034.333902,2034.333902,2034.333902,2034.333902,2034.333901,2034.333901,2034.333901,2034.333901,2034.333901,2034.333901,
   ** Warning ** SimHVAC: Maximum iterations (20) exceeded for all HVAC loops, at ANNUAL, 03/18 10:15 - 10:30
   **   ~~~   ** The solution for one or more of the Air Loop HVAC systems did not appear to converge
   **   ~~~   ** Air System Named = CENTRAL SYSTEM did not converge for mass flow rate
   **   ~~~   ** Check values should be zero. Most Recent values listed first.
   **   ~~~   ** Demand-to-Supply interface mass flow rate check value iteration history trace: 8.098371E-002,8.098371E-002,8.098371E-002,8.098371E-002,8.098371E-002,8.098371E-002,8.098371E-002,8.098371E-002,8.098371E-002,8.098371E-002,
   **   ~~~   ** Supply-to-demand interface deck 1 mass flow rate check value iteration history trace: 8.098371E-002,8.098371E-002,8.098371E-002,8.098371E-002,8.098371E-002,8.098371E-002,8.098371E-002,8.098371E-002,8.098371E-002,8.098371E-002,
   **   ~~~   ** Air System Named = CENTRAL SYSTEM did not converge for energy
   **   ~~~   ** Check values should be zero. Most Recent values listed first.
   **   ~~~   ** Demand-to-Supply interface energy check value iteration history trace: 1584.705705,1584.705705,1584.705704,1584.705704,1584.705704,1584.705704,1584.705704,1584.705704,1584.705704,1584.705704,
   **   ~~~   ** Supply-to-demand interface deck 1 energy check value iteration history trace: 2735.496245,2735.496245,2735.496245,2735.496245,2735.496244,2735.496244,2735.496244,2735.496244,2735.496244,2735.496244,
   ** Warning ** SimHVAC: Maximum iterations (20) exceeded for all HVAC loops, at ANNUAL, 03/26 21:08 - 21:15
   **   ~~~   ** The solution for one or more of the Air Loop HVAC systems did not appear to converge
   **   ~~~   ** Air System Named = CENTRAL SYSTEM did not converge for mass flow rate
   **   ~~~   ** Check values should be zero. Most Recent values listed first.
   **   ~~~   ** Demand-to-Supply interface mass flow rate check value iteration history trace: 7.287306E-002,7.287306E-002,7.287306E-002,7.287306E-002,7.287306E-002,7.287306E-002,7.287306E-002,7.287306E-002,7.287306E-002,7.287306E-002,
   **   ~~~   ** Supply-to-demand interface deck 1 mass flow rate check value iteration history trace: 7.287306E-002,7.287306E-002,7.287306E-002,7.287306E-002,7.287306E-002,7.287306E-002,7.287306E-002,7.287306E-002,7.287306E-002,7.287306E-002,
   **   ~~~   ** Air System Named = CENTRAL SYSTEM did not converge for energy
   **   ~~~   ** Check values should be zero. Most Recent values listed first.
   **   ~~~   ** Demand-to-Supply interface energy check value iteration history trace: 1443.315907,1443.315907,1443.315906,1443.315906,1443.315906,1443.315906,1443.315906,1443.315906,1443.315906,1443.315906,
   **   ~~~   ** Supply-to-demand interface deck 1 energy check value iteration history trace: 2488.949799,2488.949799,2488.949799,2488.949799,2488.949799,2488.949799,2488.949799,2488.949799,2488.949798,2488.949798,
   ** Warning ** SimHVAC: Maximum iterations (20) exceeded for all HVAC loops, at ANNUAL, 04/02 11:15 - 11:19
   **   ~~~   ** The solution for one or more of the Air Loop HVAC systems did not appear to converge
   **   ~~~   ** Air System Named = CENTRAL SYSTEM did not converge for mass flow rate
   **   ~~~   ** Check values should be zero. Most Recent values listed first.
   **   ~~~   ** Demand-to-Supply interface mass flow rate check value iteration history trace: 6.331885E-002,6.331885E-002,6.331885E-002,6.331885E-002,6.331885E-002,6.331885E-002,6.331885E-002,6.331885E-002,6.331885E-002,6.331885E-002,
   **   ~~~   ** Supply-to-demand interface deck 1 mass flow rate check value iteration history trace: 6.331885E-002,6.331885E-002,6.331885E-002,6.331885E-002,6.331885E-002,6.331885E-002,6.331885E-002,6.331885E-002,6.331885E-002,6.331885E-002,
   **   ~~~   ** Air System Named = CENTRAL SYSTEM did not converge for energy
   **   ~~~   ** Check values should be zero. Most Recent values listed first.
   **   ~~~   ** Demand-to-Supply interface energy check value iteration history trace: 1251.055863,1251.055863,1251.055863,1251.055863,1251.055863,1251.055863,1251.055863,1251.055863,1251.055863,1251.055863,
   **   ~~~   ** Supply-to-demand interface deck 1 energy check value iteration history trace: 2279.006458,2279.006458,2279.006458,2279.006458,2279.006458,2279.006458,2279.006458,2279.006458,2279.006458,2279.006458,
   ** Warning ** SimHVAC: Maximum iterations (20) exceeded for all HVAC loops, at ANNUAL, 04/09 09:45 - 10:00
   **   ~~~   ** The solution for one or more of the Air Loop HVAC systems did not appear to converge
   **   ~~~   ** Air System Named = CENTRAL SYSTEM did not converge for mass flow rate
   **   ~~~   ** Check values should be zero. Most Recent values listed first.
   **   ~~~   ** Demand-to-Supply interface mass flow rate check value iteration history trace: 8.134347E-002,8.134347E-002,8.134347E-002,8.134347E-002,8.134347E-002,8.134347E-002,8.134347E-002,8.134347E-002,8.134347E-002,8.134347E-002,
   **   ~~~   ** Supply-to-demand interface deck 1 mass flow rate check value iteration history trace: 8.134347E-002,8.134347E-002,8.134347E-002,8.134347E-002,8.134347E-002,8.134347E-002,8.134347E-002,8.134347E-002,8.134347E-002,8.134347E-002,
   **   ~~~   ** Air System Named = CENTRAL SYSTEM did not converge for energy
   **   ~~~   ** Check values should be zero. Most Recent values listed first.
   **   ~~~   ** Demand-to-Supply interface energy check value iteration history trace: 1612.008550,1612.008550,1612.008550,1612.008550,1612.008550,1612.008550,1612.008550,1612.008550,1612.008549,1612.008549,
   **   ~~~   ** Supply-to-demand interface deck 1 energy check value iteration history trace: 2810.525883,2810.525883,2810.525883,2810.525883,2810.525883,2810.525882,2810.525882,2810.525882,2810.525882,2810.525882,
   ** Warning ** SimHVAC: Maximum iterations (20) exceeded for all HVAC loops, at ANNUAL, 04/09 11:30 - 11:38
   **   ~~~   ** The solution for one or more of the Air Loop HVAC systems did not appear to converge
   **   ~~~   ** Air System Named = CENTRAL SYSTEM did not converge for mass flow rate
   **   ~~~   ** Check values should be zero. Most Recent values listed first.
   **   ~~~   ** Demand-to-Supply interface mass flow rate check value iteration history trace: 7.170445E-002,7.170445E-002,7.170445E-002,7.170445E-002,7.170445E-002,7.170445E-002,7.170445E-002,7.170445E-002,7.170445E-002,7.170445E-002,
   **   ~~~   ** Supply-to-demand interface deck 1 mass flow rate check value iteration history trace: 7.170445E-002,7.170445E-002,7.170445E-002,7.170445E-002,7.170445E-002,7.170445E-002,7.170445E-002,7.170445E-002,7.170445E-002,7.170445E-002,
   **   ~~~   ** Air System Named = CENTRAL SYSTEM did not converge for energy
   **   ~~~   ** Check values should be zero. Most Recent values listed first.
   **   ~~~   ** Demand-to-Supply interface energy check value iteration history trace: 1415.769684,1415.769684,1415.769684,1415.769684,1415.769684,1415.769684,1415.769684,1415.769684,1415.769684,1415.769684,
   **   ~~~   ** Supply-to-demand interface deck 1 energy check value iteration history trace: 2495.717874,2495.717874,2495.717874,2495.717874,2495.717874,2495.717874,2495.717874,2495.717873,2495.717873,2495.717873,
   ** Warning ** SimHVAC: Maximum iterations (20) exceeded for all HVAC loops, at ANNUAL, 04/11 08:30 - 08:45
   **   ~~~   ** The solution for one or more of the Air Loop HVAC systems did not appear to converge
   **   ~~~   ** Air System Named = CENTRAL SYSTEM did not converge for mass flow rate
   **   ~~~   ** Check values should be zero. Most Recent values listed first.
   **   ~~~   ** Demand-to-Supply interface mass flow rate check value iteration history trace: 7.888586E-002,7.888586E-002,7.888586E-002,7.888586E-002,7.888586E-002,7.888586E-002,7.888586E-002,7.888586E-002,7.888586E-002,7.888586E-002,
   **   ~~~   ** Supply-to-demand interface deck 1 mass flow rate check value iteration history trace: 7.888586E-002,7.888586E-002,7.888586E-002,7.888586E-002,7.888586E-002,7.888586E-002,7.888586E-002,7.888586E-002,7.888586E-002,7.888586E-002,
   **   ~~~   ** Air System Named = CENTRAL SYSTEM did not converge for energy
   **   ~~~   ** Check values should be zero. Most Recent values listed first.
   **   ~~~   ** Demand-to-Supply interface energy check value iteration history trace: 1563.280569,1563.280569,1563.280569,1563.280569,1563.280569,1563.280569,1563.280568,1563.280568,1563.280568,1563.280568,
   **   ~~~   ** Supply-to-demand interface deck 1 energy check value iteration history trace: 2715.140909,2715.140909,2715.140909,2715.140909,2715.140908,2715.140908,2715.140908,2715.140908,2715.140908,2715.140908,
   ** Warning ** SimHVAC: Maximum iterations (20) exceeded for all HVAC loops, at ANNUAL, 04/20 07:45 - 07:48
   **   ~~~   ** The solution for one or more of the Air Loop HVAC systems did not appear to converge
   **   ~~~   ** Air System Named = CENTRAL SYSTEM did not converge for mass flow rate
   **   ~~~   ** Check values should be zero. Most Recent values listed first.
   **   ~~~   ** Demand-to-Supply interface mass flow rate check value iteration history trace: 6.852971E-002,6.852971E-002,6.852971E-002,6.852971E-002,6.852971E-002,6.852971E-002,6.852971E-002,6.852971E-002,6.852971E-002,6.852971E-002,
   **   ~~~   ** Supply-to-demand interface deck 1 mass flow rate check value iteration history trace: 6.852971E-002,6.852971E-002,6.852971E-002,6.852971E-002,6.852971E-002,6.852971E-002,6.852971E-002,6.852971E-002,6.852971E-002,6.852971E-002,
   **   ~~~   ** Air System Named = CENTRAL SYSTEM did not converge for energy
   **   ~~~   ** Check values should be zero. Most Recent values listed first.
   **   ~~~   ** Demand-to-Supply interface energy check value iteration history trace: 1354.367624,1354.367624,1354.367624,1354.367624,1354.367624,1354.367624,1354.367624,1354.367623,1354.367623,1354.367623,
   **   ~~~   ** Supply-to-demand interface deck 1 energy check value iteration history trace: 2391.875482,2391.875482,2391.875482,2391.875482,2391.875482,2391.875482,2391.875482,2391.875482,2391.875482,2391.875482,
   ** Warning ** SimHVAC: Maximum iterations (20) exceeded for all HVAC loops, at ANNUAL, 05/06 09:56 - 10:00
   **   ~~~   ** The solution for one or more of the Air Loop HVAC systems did not appear to converge
   **   ~~~   ** Air System Named = CENTRAL SYSTEM did not converge for mass flow rate
   **   ~~~   ** Check values should be zero. Most Recent values listed first.
   **   ~~~   ** Demand-to-Supply interface mass flow rate check value iteration history trace: 7.138574E-002,7.138574E-002,7.138574E-002,7.138574E-002,7.138574E-002,7.138574E-002,7.138574E-002,7.138574E-002,7.138574E-002,7.138574E-002,
   **   ~~~   ** Supply-to-demand interface deck 1 mass flow rate check value iteration history trace: 7.138574E-002,7.138574E-002,7.138574E-002,7.138574E-002,7.138574E-002,7.138574E-002,7.138574E-002,7.138574E-002,7.138574E-002,7.138574E-002,
   **   ~~~   ** Air System Named = CENTRAL SYSTEM did not converge for energy
   **   ~~~   ** Check values should be zero. Most Recent values listed first.
   **   ~~~   ** Demand-to-Supply interface energy check value iteration history trace: 1401.810889,1401.810889,1401.810889,1401.810889,1401.810889,1401.810889,1401.810889,1401.810889,1401.810889,1401.810889,
   **   ~~~   ** Supply-to-demand interface deck 1 energy check value iteration history trace: 2512.939846,2512.939846,2512.939846,2512.939846,2512.939846,2512.939846,2512.939846,2512.939846,2512.939846,2512.939845,
   ** Warning ** SimHVAC: Maximum iterations (20) exceeded for all HVAC loops, at ANNUAL, 05/20 10:09 - 10:12
   **   ~~~   ** The solution for one or more of the Air Loop HVAC systems did not appear to converge
   **   ~~~   ** Air System Named = CENTRAL SYSTEM did not converge for mass flow rate
   **   ~~~   ** Check values should be zero. Most Recent values listed first.
   **   ~~~   ** Demand-to-Supply interface mass flow rate check value iteration history trace: 0.156736,0.156736,0.156736,0.156736,0.156736,0.156736,0.156736,0.156736,0.156736,0.156736,
   **   ~~~   ** Supply-to-demand interface deck 1 mass flow rate check value iteration history trace: 0.156736,0.156736,0.156736,0.156736,0.156736,0.156736,0.156736,0.156736,0.156736,0.156736,
   **   ~~~   ** Air System Named = CENTRAL SYSTEM did not converge for energy
   **   ~~~   ** Check values should be zero. Most Recent values listed first.
   **   ~~~   ** Demand-to-Supply interface energy check value iteration history trace: 3711.801248,3711.801249,3711.801249,3711.801249,3711.801249,3711.801250,3711.801250,3711.801250,3711.801250,3711.801250,
   **   ~~~   ** Supply-to-demand interface deck 1 energy check value iteration history trace: 1902.082296,1902.082296,1902.082296,1902.082296,1902.082296,1902.082296,1902.082297,1902.082297,1902.082297,1902.082297,
   ** Warning ** SimHVAC: Maximum iterations (20) exceeded for all HVAC loops, at ANNUAL, 05/23 20:50 - 20:55
   **   ~~~   ** The solution for one or more of the Air Loop HVAC systems did not appear to converge
   **   ~~~   ** Air System Named = CENTRAL SYSTEM did not converge for mass flow rate
   **   ~~~   ** Check values should be zero. Most Recent values listed first.
   **   ~~~   ** Demand-to-Supply interface mass flow rate check value iteration history trace: 0.222400,0.222400,0.222400,0.222400,0.222400,0.222400,0.222400,0.222400,0.222400,0.222400,
   **   ~~~   ** Supply-to-demand interface deck 1 mass flow rate check value iteration history trace: 0.222400,0.222400,0.222400,0.222400,0.222400,0.222400,0.222400,0.222400,0.222400,0.222400,
   **   ~~~   ** Air System Named = CENTRAL SYSTEM did not converge for energy
   **   ~~~   ** Check values should be zero. Most Recent values listed first.
   **   ~~~   ** Demand-to-Supply interface energy check value iteration history trace: 5279.690193,5279.690194,5279.690194,5279.690195,5279.690196,5279.690196,5279.690197,5279.690198,5279.690198,5279.690199,
   **   ~~~   ** Supply-to-demand interface deck 1 energy check value iteration history trace: 2549.149561,2549.149561,2549.149561,2549.149562,2549.149562,2549.149562,2549.149563,2549.149563,2549.149563,2549.149564,
   ** Warning ** SimHVAC: Maximum iterations (20) exceeded for all HVAC loops, at ANNUAL, 10/11 07:05 - 07:10
   **   ~~~   ** The solution for one or more of the Air Loop HVAC systems did not appear to converge
   **   ~~~   ** Air System Named = CENTRAL SYSTEM did not converge for mass flow rate
   **   ~~~   ** Check values should be zero. Most Recent values listed first.
   **   ~~~   ** Demand-to-Supply interface mass flow rate check value iteration history trace: 7.214611E-002,7.214611E-002,7.214611E-002,7.214611E-002,7.214611E-002,7.214611E-002,7.214611E-002,7.214611E-002,7.214611E-002,7.214611E-002,
   **   ~~~   ** Supply-to-demand interface deck 1 mass flow rate check value iteration history trace: 7.214611E-002,7.214611E-002,7.214611E-002,7.214611E-002,7.214611E-002,7.214611E-002,7.214611E-002,7.214611E-002,7.214611E-002,7.214611E-002,
   **   ~~~   ** Air System Named = CENTRAL SYSTEM did not converge for energy
   **   ~~~   ** Check values should be zero. Most Recent values listed first.
   **   ~~~   ** Demand-to-Supply interface energy check value iteration history trace: 1429.542402,1429.542402,1429.542402,1429.542402,1429.542401,1429.542401,1429.542401,1429.542401,1429.542401,1429.542401,
   **   ~~~   ** Supply-to-demand interface deck 1 energy check value iteration history trace: 2477.225432,2477.225432,2477.225432,2477.225432,2477.225432,2477.225432,2477.225431,2477.225431,2477.225431,2477.225431,
   ************* Simulation Error Summary *************
   ** Warning ** The following Report Variables were requested but not generated -- check.rdd file
   **   ~~~   ** Either the IDF did not contain these elements, the variable name is misspelled,
   **   ~~~   ** or the requested variable is an advanced output which requires Output : Diagnostics, DisplayAdvancedReportVariables;
   ************* Key=*, VarName=BASEBOARD TOTAL HEATING ENERGY, Frequency=
   ************* Key=*, VarName=WATER HEATER NATURALGAS ENERGY, Frequency=
   ************* Key=*, VarName=COOLING COIL TOTAL HEATING ENERGY, Frequency=
   ************* There are 34 unused schedules in input.
   ************* There are 388 unused week schedules in input.
   ************* There are 396 unused day schedules in input.
   ************* Use Output:Diagnostics,DisplayUnusedSchedules; to see them.
   *************
   ************* ===== Recurring Error Summary =====
   ************* The following recurring error messages occurred.
   *************
   *************  ** Warning ** "TOTAL HOT WATER LOAD" - Target water temperature should be less than or equal to the hot water temperature error continues...
   *************  **   ~~~   **   This error occurred 90157 total times;
   *************  **   ~~~   **   during Warmup 0 times;
   *************  **   ~~~   **   during Sizing 0 times.
   *************  **   ~~~   **   Max=8.971483  Min=5.809478E-005
   *************
   *************  ** Warning ** SimHVAC: Exceeding Maximum iterations for all HVAC loops, during ANNUAL continues
   *************  **   ~~~   **   This error occurred 4 total times;
   *************  **   ~~~   **   during Warmup 0 times;
   *************  **   ~~~   **   during Sizing 0 times.
   *************
   *************
   ************* ===== Final Error Summary =====
   ************* The following error categories occurred.  Consider correcting or noting.
   ************* Nominally Unused Constructions
   ************* ..The nominally unused constructions warning is provided to alert you to potential conditions that can cause
   ************* ..extra time during simulation. Each construction is calculated by the algorithm indicated in the HeatBalanceAlgorithm
   ************* ..object. You may remove the constructions indicated (when you use the DisplayExtraWarnings option).
   *************
   ************* EnergyPlus Warmup Error Summary. During Warmup: 1 Warning; 0 Severe Errors.
   ************* EnergyPlus Sizing Error Summary. During Sizing: 4 Warning; 0 Severe Errors.
   ************* EnergyPlus Completed Successfully-- 90192 Warning; 0 Severe Errors; Elapsed Time=00hr 04min 57.98sec
