Program Version,EnergyPlus, Version 22.2.0-c249759bad, YMD=2023.09.01 19:58,
   ************* Beginning Zone Sizing Calculations
   ** Warning ** ProcessScheduleInput: Schedule:Constant="ALWAYS ON DISCRETE", Schedule Type Limits Name="ONOFF" not found -- will not be validated
   ** Warning ** Foundation:Kiva="KIVA FOUNDATION", no Interior Horizontal Insulation Material Name defined
   **   ~~~   ** Interior Horizontal Insulation Depth will not be used.
   ** Warning ** CheckUsedConstructions: There are 15 nominally unused constructions in input.
   **   ~~~   ** Each Unused construction is shown.
   ************* Construction=INTERIOR FLOOR
   ************* Construction=INTERIOR WINDOW
   ************* Construction=EXTERIOR DOOR
   ************* Construction=INTERIOR DOOR
   ************* Construction=GABLE CONSTRUCTION
   ************* Construction=CRAWL_FLOOR
   ************* Construction=INSULATED PIPE
   ************* Construction=PLAIN PIPE
   ************* Construction=TDD PIPE
   ************* Construction=TDD DOME
   ************* Construction=TDD DIFFUSER
   ************* Construction=CRAWL WALL
   ************* Construction=CEILING-FLOOR-LAYER
   ************* Construction=SLAB CONSTRUCTION W FULL R10 INSULATION
   ************* Construction=SLAB CONSTRUCTION W FULL R5 INSULATION
   ** Warning ** GetDXCoils: Coil:Heating:DX:SingleSpeed="DX_HEATING_COIL" curve values
   **   ~~~   ** ... Defrost Energy Input Ratio Function of Temperature Curve Name = DEFROSTEIR output is not equal to 1.0 (+ or - 10%) at rated conditions.
   **   ~~~   ** ... Curve output at rated conditions = 0.152
   ************* Beginning System Sizing Calculations
   ************* Beginning Plant Sizing Calculations
   ** Warning ** SizeDXCoil Coil:Cooling:DX:SingleSpeed DX_COOLING_COIL
   **   ~~~   ** ...Gross Rated Total Cooling Capacity [W] will be limited by the maximum rated volume flow per rated total capacity ratio.
   **   ~~~   ** ...DX coil volume flow rate ( m3/s ) = 0.492103
   **   ~~~   ** ...Requested capacity ( W ) = 7938.432
   **   ~~~   ** ...Requested flow/capacity ratio ( m3/s/W ) = 6.199E-005
   **   ~~~   ** ...Maximum flow/capacity ratio ( m3/s/W ) = 6.041E-005
   **   ~~~   ** ...Adjusted capacity ( W ) = 8146.067
   ** Warning ** Coil:WaterHeating:AirToWaterHeatPump:Wrapped "HEAT PUMP WATER HEATER EVAPORATOR": Rated air volume flow rate per watt of rated total water heating capacity is out of range
   **   ~~~   ** Min Rated Vol Flow Per Watt=[4.027E-005], Rated Vol Flow Per Watt=[1.510E-004], Max Rated Vol Flow Per Watt=[8.056E-005]. See Input-Output Reference Manual for valid range.
   ************* SizeFan: : Potential issue with equipment sizing for Fan:OnOff HEAT PUMP WATER HEATER FAN
   **   ~~~   ** User-Specified Maximum Flow Rate [m3/s] = 0.22653
   **   ~~~   ** differs from Design Size Maximum Flow Rate [m3/s] = 7.55250E-002
   **   ~~~   ** This may, or may not, indicate mismatched component sizes.
   **   ~~~   ** Verify that the value entered is intended and is consistent with other components.
   ** Warning ** Water heater = WATER HEATER TANK:  Recovery Efficiency and Energy Factor could not be calculated during the test for standard ratings
   **   ~~~   ** Setpoint was never recovered and/or heater never turned on
   ** Warning ** Check input. Pump nominal power or motor efficiency is set to 0, for pump=MAINS PRESSURE
   ** Warning ** Output:Meter: invalid Key Name="ELECTRIC_RANGE:INTERIOREQUIPMENT:ELECTRICITY" - not found.
   ** Warning ** Output:Meter: invalid Key Name="ELECTRIC_DRYER:INTERIOREQUIPMENT:ELECTRICITY" - not found.
   ** Warning ** Output:Meter: invalid Key Name="HEATRECOVERY:ELECTRICITY" - not found.
   ** Warning ** Output:Meter: invalid Key Name="HEATING:NATURALGAS" - not found.
   ** Warning ** Output:Meter: invalid Key Name="WATERSYSTEMS:NATURALGAS" - not found.
   ** Warning ** Output:Meter: invalid Key Name="PROPANE:FACILITY" - not found.
   ** Warning ** Output:Meter: invalid Key Name="HEATING:PROPANE" - not found.
   ************* Testing Individual Branch Integrity
   ************* All Branches passed integrity testing
   ************* Testing Individual Supply Air Path Integrity
   ************* All Supply Air Paths passed integrity testing
   ************* Testing Individual Return Air Path Integrity
   ************* All Return Air Paths passed integrity testing
   ************* No node connection errors were found.
   ************* Beginning Simulation
   ** Warning ** AirflowNetwork::Solver::validate_distribution: Heat pump water heater is simulated along with an AirflowNetwork but is not included in the AirflowNetwork.
   ** Warning ** CalcEquipmentFlowRates: "TOTAL HOT WATER LOAD" - Target water temperature is greater than the hot water temperature by (4.56 C)
   **   ~~~   **  Environment=EXTREME_WINTER, at Simulation time=12/22 07:00 - 07:15
   **   ~~~   ** ...target water temperature     = 53.33 C
   **   ~~~   ** ...hot water temperature        = 48.77 C
   **   ~~~   ** ...Target water temperature should be less than or equal to the hot water temperature. Verify temperature setpoints and schedules.
   ** Warning ** SimHVAC: Maximum iterations (20) exceeded for all HVAC loops, at EXTREME_WINTER, 12/25 16:30 - 16:45
   **   ~~~   ** The solution for one or more of the Air Loop HVAC systems did not appear to converge
   **   ~~~   ** Air System Named = CENTRAL SYSTEM did not converge for mass flow rate
   **   ~~~   ** Check values should be zero. Most Recent values listed first.
   **   ~~~   ** Demand-to-Supply interface mass flow rate check value iteration history trace: 5.811027E-002,5.811027E-002,5.811027E-002,5.811027E-002,5.811027E-002,5.811027E-002,5.811027E-002,5.811027E-002,5.811027E-002,5.811027E-002,
   **   ~~~   ** Supply-to-demand interface deck 1 mass flow rate check value iteration history trace: 5.811027E-002,5.811027E-002,5.811027E-002,5.811027E-002,5.811027E-002,5.811027E-002,5.811027E-002,5.811027E-002,5.811027E-002,5.811027E-002,
   **   ~~~   ** Air System Named = CENTRAL SYSTEM did not converge for energy
   **   ~~~   ** Check values should be zero. Most Recent values listed first.
   **   ~~~   ** Demand-to-Supply interface energy check value iteration history trace: 1141.606532,1141.606532,1141.606532,1141.606532,1141.606532,1141.606532,1141.606532,1141.606532,1141.606532,1141.606532,
   **   ~~~   ** Supply-to-demand interface deck 1 energy check value iteration history trace: 1979.805066,1979.805066,1979.805066,1979.805066,1979.805066,1979.805066,1979.805066,1979.805065,1979.805065,1979.805065,
   ** Warning ** SimHVAC: Maximum iterations (20) exceeded for all HVAC loops, at ANNUAL, 01/07 09:30 - 09:32
   **   ~~~   ** The solution for one or more of the Air Loop HVAC systems did not appear to converge
   **   ~~~   ** Air System Named = CENTRAL SYSTEM did not converge for mass flow rate
   **   ~~~   ** Check values should be zero. Most Recent values listed first.
   **   ~~~   ** Demand-to-Supply interface mass flow rate check value iteration history trace: 6.421112E-002,6.421112E-002,6.421112E-002,6.421112E-002,6.421112E-002,6.421112E-002,6.421112E-002,6.421112E-002,6.421112E-002,6.421112E-002,
   **   ~~~   ** Supply-to-demand interface deck 1 mass flow rate check value iteration history trace: 6.421112E-002,6.421112E-002,6.421112E-002,6.421112E-002,6.421112E-002,6.421112E-002,6.421112E-002,6.421112E-002,6.421112E-002,6.421112E-002,
   **   ~~~   ** Air System Named = CENTRAL SYSTEM did not converge for energy
   **   ~~~   ** Check values should be zero. Most Recent values listed first.
   **   ~~~   ** Demand-to-Supply interface energy check value iteration history trace: 1270.453041,1270.453041,1270.453041,1270.453041,1270.453041,1270.453041,1270.453041,1270.453041,1270.453041,1270.453041,
   **   ~~~   ** Supply-to-demand interface deck 1 energy check value iteration history trace: 2219.362135,2219.362135,2219.362135,2219.362135,2219.362135,2219.362135,2219.362135,2219.362135,2219.362135,2219.362135,
   ** Warning ** SimHVAC: Maximum iterations (20) exceeded for all HVAC loops, at ANNUAL, 01/18 11:30 - 11:34
   **   ~~~   ** The solution for one or more of the Air Loop HVAC systems did not appear to converge
   **   ~~~   ** Air System Named = CENTRAL SYSTEM did not converge for mass flow rate
   **   ~~~   ** Check values should be zero. Most Recent values listed first.
   **   ~~~   ** Demand-to-Supply interface mass flow rate check value iteration history trace: 5.745586E-002,5.745586E-002,5.745586E-002,5.745586E-002,5.745586E-002,5.745586E-002,5.745586E-002,5.745586E-002,5.745586E-002,5.745586E-002,
   **   ~~~   ** Supply-to-demand interface deck 1 mass flow rate check value iteration history trace: 5.745586E-002,5.745586E-002,5.745586E-002,5.745586E-002,5.745586E-002,5.745586E-002,5.745586E-002,5.745586E-002,5.745586E-002,5.745586E-002,
   **   ~~~   ** Air System Named = CENTRAL SYSTEM did not converge for energy
   **   ~~~   ** Check values should be zero. Most Recent values listed first.
   **   ~~~   ** Demand-to-Supply interface energy check value iteration history trace: 1134.657936,1134.657936,1134.657936,1134.657936,1134.657936,1134.657936,1134.657936,1134.657936,1134.657936,1134.657935,
   **   ~~~   ** Supply-to-demand interface deck 1 energy check value iteration history trace: 1966.142119,1966.142119,1966.142119,1966.142119,1966.142119,1966.142119,1966.142119,1966.142118,1966.142118,1966.142118,
   ** Warning ** SimHVAC: Maximum iterations (20) exceeded for all HVAC loops, at ANNUAL, 01/22 10:15 - 10:20
   **   ~~~   ** The solution for one or more of the Air Loop HVAC systems did not appear to converge
   **   ~~~   ** Air System Named = CENTRAL SYSTEM did not converge for mass flow rate
   **   ~~~   ** Check values should be zero. Most Recent values listed first.
   **   ~~~   ** Demand-to-Supply interface mass flow rate check value iteration history trace: 6.744500E-002,6.744500E-002,6.744500E-002,6.744500E-002,6.744500E-002,6.744500E-002,6.744500E-002,6.744500E-002,6.744500E-002,6.744500E-002,
   **   ~~~   ** Supply-to-demand interface deck 1 mass flow rate check value iteration history trace: 6.744500E-002,6.744500E-002,6.744500E-002,6.744500E-002,6.744500E-002,6.744500E-002,6.744500E-002,6.744500E-002,6.744500E-002,6.744500E-002,
   **   ~~~   ** Air System Named = CENTRAL SYSTEM did not converge for energy
   **   ~~~   ** Check values should be zero. Most Recent values listed first.
   **   ~~~   ** Demand-to-Supply interface energy check value iteration history trace: 1330.691271,1330.691271,1330.691271,1330.691271,1330.691271,1330.691270,1330.691270,1330.691270,1330.691270,1330.691270,
   **   ~~~   ** Supply-to-demand interface deck 1 energy check value iteration history trace: 2302.014556,2302.014556,2302.014555,2302.014555,2302.014555,2302.014555,2302.014555,2302.014555,2302.014555,2302.014555,
   ** Warning ** SimHVAC: Maximum iterations (20) exceeded for all HVAC loops, at ANNUAL, 01/23 10:38 - 10:45
   **   ~~~   ** The solution for one or more of the Air Loop HVAC systems did not appear to converge
   **   ~~~   ** Air System Named = CENTRAL SYSTEM did not converge for mass flow rate
   **   ~~~   ** Check values should be zero. Most Recent values listed first.
   **   ~~~   ** Demand-to-Supply interface mass flow rate check value iteration history trace: 6.088874E-002,6.088874E-002,6.088874E-002,6.088874E-002,6.088874E-002,6.088874E-002,6.088874E-002,6.088874E-002,6.088874E-002,6.088874E-002,
   **   ~~~   ** Supply-to-demand interface deck 1 mass flow rate check value iteration history trace: 6.088874E-002,6.088874E-002,6.088874E-002,6.088874E-002,6.088874E-002,6.088874E-002,6.088874E-002,6.088874E-002,6.088874E-002,6.088874E-002,
   **   ~~~   ** Air System Named = CENTRAL SYSTEM did not converge for energy
   **   ~~~   ** Check values should be zero. Most Recent values listed first.
   **   ~~~   ** Demand-to-Supply interface energy check value iteration history trace: 1202.418279,1202.418279,1202.418279,1202.418279,1202.418279,1202.418279,1202.418279,1202.418279,1202.418279,1202.418279,
   **   ~~~   ** Supply-to-demand interface deck 1 energy check value iteration history trace: 2099.163009,2099.163009,2099.163009,2099.163009,2099.163009,2099.163008,2099.163008,2099.163008,2099.163008,2099.163008,
   ** Warning ** SimHVAC: Maximum iterations (20) exceeded for all HVAC loops, at ANNUAL, 02/15 05:15 - 05:30
   **   ~~~   ** The solution for one or more of the Air Loop HVAC systems did not appear to converge
   **   ~~~   ** Air System Named = CENTRAL SYSTEM did not converge for mass flow rate
   **   ~~~   ** Check values should be zero. Most Recent values listed first.
   **   ~~~   ** Demand-to-Supply interface mass flow rate check value iteration history trace: 5.915495E-002,5.915495E-002,5.915495E-002,5.915495E-002,5.915495E-002,5.915495E-002,5.915495E-002,5.915495E-002,5.915495E-002,5.915495E-002,
   **   ~~~   ** Supply-to-demand interface deck 1 mass flow rate check value iteration history trace: 5.915495E-002,5.915495E-002,5.915495E-002,5.915495E-002,5.915495E-002,5.915495E-002,5.915495E-002,5.915495E-002,5.915495E-002,5.915495E-002,
   **   ~~~   ** Air System Named = CENTRAL SYSTEM did not converge for energy
   **   ~~~   ** Check values should be zero. Most Recent values listed first.
   **   ~~~   ** Demand-to-Supply interface energy check value iteration history trace: 1172.214086,1172.214086,1172.214086,1172.214086,1172.214086,1172.214086,1172.214086,1172.214086,1172.214086,1172.214086,
   **   ~~~   ** Supply-to-demand interface deck 1 energy check value iteration history trace: 1990.175760,1990.175760,1990.175760,1990.175760,1990.175760,1990.175760,1990.175760,1990.175760,1990.175760,1990.175759,
   ** Warning ** SimHVAC: Maximum iterations (20) exceeded for all HVAC loops, at ANNUAL, 03/08 08:45 - 09:00
   **   ~~~   ** The solution for one or more of the Air Loop HVAC systems did not appear to converge
   **   ~~~   ** Air System Named = CENTRAL SYSTEM did not converge for mass flow rate
   **   ~~~   ** Check values should be zero. Most Recent values listed first.
   **   ~~~   ** Demand-to-Supply interface mass flow rate check value iteration history trace: 6.413951E-002,6.413951E-002,6.413951E-002,6.413951E-002,6.413951E-002,6.413951E-002,6.413951E-002,6.413951E-002,6.413951E-002,6.413951E-002,
   **   ~~~   ** Supply-to-demand interface deck 1 mass flow rate check value iteration history trace: 6.413951E-002,6.413951E-002,6.413951E-002,6.413951E-002,6.413951E-002,6.413951E-002,6.413951E-002,6.413951E-002,6.413951E-002,6.413951E-002,
   **   ~~~   ** Air System Named = CENTRAL SYSTEM did not converge for energy
   **   ~~~   ** Check values should be zero. Most Recent values listed first.
   **   ~~~   ** Demand-to-Supply interface energy check value iteration history trace: 1256.504453,1256.504453,1256.504453,1256.504453,1256.504453,1256.504453,1256.504453,1256.504453,1256.504453,1256.504452,
   **   ~~~   ** Supply-to-demand interface deck 1 energy check value iteration history trace: 2190.587015,2190.587014,2190.587014,2190.587014,2190.587014,2190.587014,2190.587014,2190.587014,2190.587014,2190.587014,
   ** Warning ** SimHVAC: Maximum iterations (20) exceeded for all HVAC loops, at ANNUAL, 03/13 06:15 - 06:22
   **   ~~~   ** The solution for one or more of the Air Loop HVAC systems did not appear to converge
   **   ~~~   ** Air System Named = CENTRAL SYSTEM did not converge for mass flow rate
   **   ~~~   ** Check values should be zero. Most Recent values listed first.
   **   ~~~   ** Demand-to-Supply interface mass flow rate check value iteration history trace: 5.232979E-002,5.232979E-002,5.232979E-002,5.232979E-002,5.232979E-002,5.232979E-002,5.232979E-002,5.232979E-002,5.232979E-002,5.232979E-002,
   **   ~~~   ** Supply-to-demand interface deck 1 mass flow rate check value iteration history trace: 5.232979E-002,5.232979E-002,5.232979E-002,5.232979E-002,5.232979E-002,5.232979E-002,5.232979E-002,5.232979E-002,5.232979E-002,5.232979E-002,
   **   ~~~   ** Air System Named = CENTRAL SYSTEM did not converge for energy
   **   ~~~   ** Check values should be zero. Most Recent values listed first.
   **   ~~~   ** Demand-to-Supply interface energy check value iteration history trace: 1037.033800,1037.033800,1037.033800,1037.033800,1037.033800,1037.033800,1037.033800,1037.033800,1037.033800,1037.033800,
   **   ~~~   ** Supply-to-demand interface deck 1 energy check value iteration history trace: 1788.462414,1788.462414,1788.462414,1788.462413,1788.462413,1788.462413,1788.462413,1788.462413,1788.462413,1788.462413,
   ** Warning ** SimHVAC: Maximum iterations (20) exceeded for all HVAC loops, at ANNUAL, 04/03 08:47 - 08:48
   **   ~~~   ** The solution for one or more of the Air Loop HVAC systems did not appear to converge
   **   ~~~   ** Air System Named = CENTRAL SYSTEM did not converge for mass flow rate
   **   ~~~   ** Check values should be zero. Most Recent values listed first.
   **   ~~~   ** Demand-to-Supply interface mass flow rate check value iteration history trace: 0.118506,0.118506,0.118506,0.118506,0.118506,0.118506,0.118506,0.118506,0.118506,0.118506,
   **   ~~~   ** Supply-to-demand interface deck 1 mass flow rate check value iteration history trace: 0.118506,0.118506,0.118506,0.118506,0.118506,0.118506,0.118506,0.118506,0.118506,0.118506,
   **   ~~~   ** Air System Named = CENTRAL SYSTEM did not converge for energy
   **   ~~~   ** Check values should be zero. Most Recent values listed first.
   **   ~~~   ** Demand-to-Supply interface energy check value iteration history trace: 2786.008603,2786.008603,2786.008603,2786.008604,2786.008604,2786.008604,2786.008604,2786.008604,2786.008604,2786.008605,
   **   ~~~   ** Supply-to-demand interface deck 1 energy check value iteration history trace: 1377.543150,1377.543150,1377.543150,1377.543150,1377.543150,1377.543150,1377.543150,1377.543151,1377.543151,1377.543151,
   ** Warning ** SimHVAC: Maximum iterations (20) exceeded for all HVAC loops, at ANNUAL, 04/07 10:53 - 10:56
   **   ~~~   ** The solution for one or more of the Air Loop HVAC systems did not appear to converge
   **   ~~~   ** Air System Named = CENTRAL SYSTEM did not converge for mass flow rate
   **   ~~~   ** Check values should be zero. Most Recent values listed first.
   **   ~~~   ** Demand-to-Supply interface mass flow rate check value iteration history trace: 0.166483,0.166483,0.166483,0.166483,0.166483,0.166483,0.166483,0.166483,0.166483,0.166483,
   **   ~~~   ** Supply-to-demand interface deck 1 mass flow rate check value iteration history trace: 0.166483,0.166483,0.166483,0.166483,0.166483,0.166483,0.166483,0.166483,0.166483,0.166483,
   **   ~~~   ** Air System Named = CENTRAL SYSTEM did not converge for energy
   **   ~~~   ** Check values should be zero. Most Recent values listed first.
   **   ~~~   ** Demand-to-Supply interface energy check value iteration history trace: 3966.043667,3966.043667,3966.043667,3966.043667,3966.043668,3966.043668,3966.043668,3966.043668,3966.043669,3966.043669,
   **   ~~~   ** Supply-to-demand interface deck 1 energy check value iteration history trace: 1832.445826,1832.445826,1832.445826,1832.445827,1832.445827,1832.445827,1832.445827,1832.445827,1832.445827,1832.445827,
   ** Warning ** SimHVAC: Maximum iterations (20) exceeded for all HVAC loops, at ANNUAL, 04/17 22:45 - 23:00
   **   ~~~   ** The solution for one or more of the Air Loop HVAC systems did not appear to converge
   **   ~~~   ** Air System Named = CENTRAL SYSTEM did not converge for mass flow rate
   **   ~~~   ** Check values should be zero. Most Recent values listed first.
   **   ~~~   ** Demand-to-Supply interface mass flow rate check value iteration history trace: 7.585530E-002,7.585530E-002,7.585530E-002,7.585530E-002,7.585530E-002,7.585530E-002,7.585530E-002,7.585530E-002,7.585530E-002,7.585530E-002,
   **   ~~~   ** Supply-to-demand interface deck 1 mass flow rate check value iteration history trace: 7.585530E-002,7.585530E-002,7.585530E-002,7.585530E-002,7.585530E-002,7.585530E-002,7.585530E-002,7.585530E-002,7.585530E-002,7.585530E-002,
   **   ~~~   ** Air System Named = CENTRAL SYSTEM did not converge for energy
   **   ~~~   ** Check values should be zero. Most Recent values listed first.
   **   ~~~   ** Demand-to-Supply interface energy check value iteration history trace: 1868.765307,1868.765307,1868.765308,1868.765308,1868.765308,1868.765309,1868.765309,1868.765309,1868.765310,1868.765310,
   **   ~~~   ** Supply-to-demand interface deck 1 energy check value iteration history trace: 918.367240,918.367240,918.367240,918.367240,918.367240,918.367241,918.367241,918.367241,918.367241,918.367241,
   ** Warning ** SimHVAC: Maximum iterations (20) exceeded for all HVAC loops, at ANNUAL, 11/14 07:00 - 07:08
   **   ~~~   ** The solution for one or more of the Air Loop HVAC systems did not appear to converge
   **   ~~~   ** Air System Named = CENTRAL SYSTEM did not converge for mass flow rate
   **   ~~~   ** Check values should be zero. Most Recent values listed first.
   **   ~~~   ** Demand-to-Supply interface mass flow rate check value iteration history trace: 5.231567E-002,5.231567E-002,5.231567E-002,5.231567E-002,5.231567E-002,5.231567E-002,5.231567E-002,5.231567E-002,5.231567E-002,5.231567E-002,
   **   ~~~   ** Supply-to-demand interface deck 1 mass flow rate check value iteration history trace: 5.231567E-002,5.231567E-002,5.231567E-002,5.231567E-002,5.231567E-002,5.231567E-002,5.231567E-002,5.231567E-002,5.231567E-002,5.231567E-002,
   **   ~~~   ** Air System Named = CENTRAL SYSTEM did not converge for energy
   **   ~~~   ** Check values should be zero. Most Recent values listed first.
   **   ~~~   ** Demand-to-Supply interface energy check value iteration history trace: 1036.582126,1036.582126,1036.582126,1036.582126,1036.582126,1036.582126,1036.582126,1036.582126,1036.582126,1036.582126,
   **   ~~~   ** Supply-to-demand interface deck 1 energy check value iteration history trace: 1727.083616,1727.083616,1727.083616,1727.083616,1727.083616,1727.083616,1727.083616,1727.083616,1727.083616,1727.083616,
   ** Warning ** SimHVAC: Maximum iterations (20) exceeded for all HVAC loops, at ANNUAL, 11/16 16:53 - 17:00
   **   ~~~   ** The solution for one or more of the Air Loop HVAC systems did not appear to converge
   **   ~~~   ** Air System Named = CENTRAL SYSTEM did not converge for mass flow rate
   **   ~~~   ** Check values should be zero. Most Recent values listed first.
   **   ~~~   ** Demand-to-Supply interface mass flow rate check value iteration history trace: 0.177416,0.177416,0.177416,0.177416,0.177416,0.177416,0.177416,0.177416,0.177416,0.177416,
   **   ~~~   ** Supply-to-demand interface deck 1 mass flow rate check value iteration history trace: 0.177416,0.177416,0.177416,0.177416,0.177416,0.177416,0.177416,0.177416,0.177416,0.177416,
   **   ~~~   ** Air System Named = CENTRAL SYSTEM did not converge for energy
   **   ~~~   ** Check values should be zero. Most Recent values listed first.
   **   ~~~   ** Demand-to-Supply interface energy check value iteration history trace: 4235.729460,4235.729461,4235.729462,4235.729463,4235.729464,4235.729465,4235.729466,4235.729467,4235.729468,4235.729469,
   **   ~~~   ** Supply-to-demand interface deck 1 energy check value iteration history trace: 2089.135993,2089.135994,2089.135994,2089.135995,2089.135995,2089.135995,2089.135996,2089.135996,2089.135997,2089.135997,
   ** Warning ** SimHVAC: Maximum iterations (20) exceeded for all HVAC loops, at ANNUAL, 11/16 18:53 - 19:00
   **   ~~~   ** The solution for one or more of the Air Loop HVAC systems did not appear to converge
   **   ~~~   ** Air System Named = CENTRAL SYSTEM did not converge for mass flow rate
   **   ~~~   ** Check values should be zero. Most Recent values listed first.
   **   ~~~   ** Demand-to-Supply interface mass flow rate check value iteration history trace: 7.910206E-002,7.910206E-002,7.910206E-002,7.910206E-002,7.910206E-002,7.910206E-002,7.910206E-002,7.910206E-002,7.910206E-002,7.910206E-002,
   **   ~~~   ** Supply-to-demand interface deck 1 mass flow rate check value iteration history trace: 7.910206E-002,7.910206E-002,7.910206E-002,7.910206E-002,7.910206E-002,7.910206E-002,7.910206E-002,7.910206E-002,7.910206E-002,7.910206E-002,
   **   ~~~   ** Air System Named = CENTRAL SYSTEM did not converge for energy
   **   ~~~   ** Check values should be zero. Most Recent values listed first.
   **   ~~~   ** Demand-to-Supply interface energy check value iteration history trace: 1878.169423,1878.169424,1878.169424,1878.169424,1878.169424,1878.169424,1878.169424,1878.169424,1878.169424,1878.169424,
   **   ~~~   ** Supply-to-demand interface deck 1 energy check value iteration history trace: 920.827654,920.827654,920.827654,920.827654,920.827654,920.827654,920.827654,920.827654,920.827654,920.827654,
   ************* Simulation Error Summary *************
   ** Warning ** The following Report Variables were requested but not generated -- check.rdd file
   **   ~~~   ** Either the IDF did not contain these elements, the variable name is misspelled,
   **   ~~~   ** or the requested variable is an advanced output which requires Output : Diagnostics, DisplayAdvancedReportVariables;
   ************* Key=*, VarName=BASEBOARD TOTAL HEATING ENERGY, Frequency=
   ************* Key=*, VarName=WATER HEATER NATURALGAS ENERGY, Frequency=
   ************* Key=*, VarName=COOLING COIL TOTAL HEATING ENERGY, Frequency=
   ************* There are 34 unused schedules in input.
   ************* There are 388 unused week schedules in input.
   ************* There are 396 unused day schedules in input.
   ************* Use Output:Diagnostics,DisplayUnusedSchedules; to see them.
   *************
   ************* ===== Recurring Error Summary =====
   ************* The following recurring error messages occurred.
   *************
   *************  ** Warning ** "TOTAL HOT WATER LOAD" - Target water temperature should be less than or equal to the hot water temperature error continues...
   *************  **   ~~~   **   This error occurred 222337 total times;
   *************  **   ~~~   **   during Warmup 0 times;
   *************  **   ~~~   **   during Sizing 0 times.
   *************  **   ~~~   **   Max=12.058162  Min=3.613572E-005
   *************
   *************  ** Warning ** SimHVAC: Exceeding Maximum iterations for all HVAC loops, during ANNUAL continues
   *************  **   ~~~   **   This error occurred 13 total times;
   *************  **   ~~~   **   during Warmup 0 times;
   *************  **   ~~~   **   during Sizing 0 times.
   *************
   *************
   ************* ===== Final Error Summary =====
   ************* The following error categories occurred.  Consider correcting or noting.
   ************* Nominally Unused Constructions
   ************* ..The nominally unused constructions warning is provided to alert you to potential conditions that can cause
   ************* ..extra time during simulation. Each construction is calculated by the algorithm indicated in the HeatBalanceAlgorithm
   ************* ..object. You may remove the constructions indicated (when you use the DisplayExtraWarnings option).
   *************
   ************* EnergyPlus Warmup Error Summary. During Warmup: 1 Warning; 0 Severe Errors.
   ************* EnergyPlus Sizing Error Summary. During Sizing: 4 Warning; 0 Severe Errors.
   ************* EnergyPlus Completed Successfully-- 222382 Warning; 0 Severe Errors; Elapsed Time=00hr 01min 59.84sec
