Program Version,EnergyPlus, Version 22.2.0-c249759bad, YMD=2023.09.01 19:45,
   ************* Beginning Zone Sizing Calculations
   ** Warning ** ProcessScheduleInput: Schedule:Constant="ALWAYS ON DISCRETE", Schedule Type Limits Name="ONOFF" not found -- will not be validated
   ** Warning ** Foundation:Kiva="KIVA FOUNDATION", no Interior Horizontal Insulation Material Name defined
   **   ~~~   ** Interior Horizontal Insulation Depth will not be used.
   ** Warning ** CheckUsedConstructions: There are 15 nominally unused constructions in input.
   **   ~~~   ** Each Unused construction is shown.
   ************* Construction=INTERIOR FLOOR
   ************* Construction=INTERIOR WINDOW
   ************* Construction=EXTERIOR DOOR
   ************* Construction=INTERIOR DOOR
   ************* Construction=GABLE CONSTRUCTION
   ************* Construction=CRAWL_FLOOR
   ************* Construction=INSULATED PIPE
   ************* Construction=PLAIN PIPE
   ************* Construction=TDD PIPE
   ************* Construction=TDD DOME
   ************* Construction=TDD DIFFUSER
   ************* Construction=CRAWL WALL
   ************* Construction=CEILING-FLOOR-LAYER
   ************* Construction=SLAB CONSTRUCTION W FULL R10 INSULATION
   ************* Construction=SLAB CONSTRUCTION W FULL R5 INSULATION
   ** Warning ** GetDXCoils: Coil:Heating:DX:SingleSpeed="DX_HEATING_COIL" curve values
   **   ~~~   ** ... Defrost Energy Input Ratio Function of Temperature Curve Name = DEFROSTEIR output is not equal to 1.0 (+ or - 10%) at rated conditions.
   **   ~~~   ** ... Curve output at rated conditions = 0.152
   ************* Beginning System Sizing Calculations
   ************* Beginning Plant Sizing Calculations
   ** Warning ** SizeDXCoil Coil:Cooling:DX:SingleSpeed DX_COOLING_COIL
   **   ~~~   ** ...Gross Rated Total Cooling Capacity [W] will be limited by the maximum rated volume flow per rated total capacity ratio.
   **   ~~~   ** ...DX coil volume flow rate ( m3/s ) = 0.528533
   **   ~~~   ** ...Requested capacity ( W ) = 7669.670
   **   ~~~   ** ...Requested flow/capacity ratio ( m3/s/W ) = 6.891E-005
   **   ~~~   ** ...Maximum flow/capacity ratio ( m3/s/W ) = 6.041E-005
   **   ~~~   ** ...Adjusted capacity ( W ) = 8749.114
   ** Warning ** Coil:WaterHeating:AirToWaterHeatPump:Wrapped "HEAT PUMP WATER HEATER EVAPORATOR": Rated air volume flow rate per watt of rated total water heating capacity is out of range
   **   ~~~   ** Min Rated Vol Flow Per Watt=[4.027E-005], Rated Vol Flow Per Watt=[1.510E-004], Max Rated Vol Flow Per Watt=[8.056E-005]. See Input-Output Reference Manual for valid range.
   ************* SizeFan: : Potential issue with equipment sizing for Fan:OnOff HEAT PUMP WATER HEATER FAN
   **   ~~~   ** User-Specified Maximum Flow Rate [m3/s] = 0.22653
   **   ~~~   ** differs from Design Size Maximum Flow Rate [m3/s] = 7.55250E-002
   **   ~~~   ** This may, or may not, indicate mismatched component sizes.
   **   ~~~   ** Verify that the value entered is intended and is consistent with other components.
   ** Warning ** Water heater = WATER HEATER TANK:  Recovery Efficiency and Energy Factor could not be calculated during the test for standard ratings
   **   ~~~   ** Setpoint was never recovered and/or heater never turned on
   ** Warning ** Check input. Pump nominal power or motor efficiency is set to 0, for pump=MAINS PRESSURE
   ** Warning ** Output:Meter: invalid Key Name="ELECTRIC_RANGE:INTERIOREQUIPMENT:ELECTRICITY" - not found.
   ** Warning ** Output:Meter: invalid Key Name="ELECTRIC_DRYER:INTERIOREQUIPMENT:ELECTRICITY" - not found.
   ** Warning ** Output:Meter: invalid Key Name="HEATRECOVERY:ELECTRICITY" - not found.
   ** Warning ** Output:Meter: invalid Key Name="HEATING:NATURALGAS" - not found.
   ** Warning ** Output:Meter: invalid Key Name="WATERSYSTEMS:NATURALGAS" - not found.
   ** Warning ** Output:Meter: invalid Key Name="PROPANE:FACILITY" - not found.
   ** Warning ** Output:Meter: invalid Key Name="HEATING:PROPANE" - not found.
   ************* Testing Individual Branch Integrity
   ************* All Branches passed integrity testing
   ************* Testing Individual Supply Air Path Integrity
   ************* All Supply Air Paths passed integrity testing
   ************* Testing Individual Return Air Path Integrity
   ************* All Return Air Paths passed integrity testing
   ************* No node connection errors were found.
   ************* Beginning Simulation
   ** Warning ** AirflowNetwork::Solver::validate_distribution: Heat pump water heater is simulated along with an AirflowNetwork but is not included in the AirflowNetwork.
   ** Warning ** CalcEquipmentFlowRates: "TOTAL HOT WATER LOAD" - Target water temperature is greater than the hot water temperature by (3.37 C)
   **   ~~~   **  Environment=EXTREME_WINTER, at Simulation time=12/15 06:00 - 06:15
   **   ~~~   ** ...target water temperature     = 53.33 C
   **   ~~~   ** ...hot water temperature        = 49.96 C
   **   ~~~   ** ...Target water temperature should be less than or equal to the hot water temperature. Verify temperature setpoints and schedules.
   ** Warning ** SimHVAC: Maximum iterations (20) exceeded for all HVAC loops, at EXTREME_WINTER, 12/17 16:10 - 16:15
   **   ~~~   ** The solution for one or more of the Air Loop HVAC systems did not appear to converge
   **   ~~~   ** Air System Named = CENTRAL SYSTEM did not converge for mass flow rate
   **   ~~~   ** Check values should be zero. Most Recent values listed first.
   **   ~~~   ** Demand-to-Supply interface mass flow rate check value iteration history trace: 0.103898,0.103898,0.103898,0.103898,0.103898,0.103898,0.103898,0.103898,0.103898,0.103898,
   **   ~~~   ** Supply-to-demand interface deck 1 mass flow rate check value iteration history trace: 0.103898,0.103898,0.103898,0.103898,0.103898,0.103898,0.103898,0.103898,0.103898,0.103898,
   **   ~~~   ** Air System Named = CENTRAL SYSTEM did not converge for energy
   **   ~~~   ** Check values should be zero. Most Recent values listed first.
   **   ~~~   ** Demand-to-Supply interface energy check value iteration history trace: 2059.369092,2059.369092,2059.369091,2059.369091,2059.369091,2059.369091,2059.369091,2059.369091,2059.369090,2059.369090,
   **   ~~~   ** Supply-to-demand interface deck 1 energy check value iteration history trace: 3028.145649,3028.145649,3028.145648,3028.145648,3028.145648,3028.145648,3028.145648,3028.145647,3028.145647,3028.145647,
   ** Severe  ** CheckWarmupConvergence: Loads Initialization, Zone="ATTIC" did not converge after 25 warmup days.
   **   ~~~   ** See Warmup Convergence Information in .eio file for details.
   **   ~~~   ** ...Environment(RunPeriod)="ANNUAL"
   **   ~~~   ** ..Max Temp Comparison = 9.28E-002 vs Temperature Convergence Tolerance=5.00E-002 - Fail Convergence
   **   ~~~   ** ..Min Temp Comparison = 2.37E-004 vs Temperature Convergence Tolerance=5.00E-002 - Pass Convergence
   **   ~~~   ** ..Max Heat Load Comparison = 0.0000 vs Loads Convergence Tolerance=5.00E-002 - Pass Convergence
   **   ~~~   ** ..Max Cool Load Comparison = 0.0000 vs Loads Convergence Tolerance=5.00E-002 - Pass Convergence
   ** Warning ** SimHVAC: Maximum iterations (20) exceeded for all HVAC loops, at ANNUAL, 01/23 19:00 - 19:05
   **   ~~~   ** The solution for one or more of the Air Loop HVAC systems did not appear to converge
   **   ~~~   ** Air System Named = CENTRAL SYSTEM did not converge for mass flow rate
   **   ~~~   ** Check values should be zero. Most Recent values listed first.
   **   ~~~   ** Demand-to-Supply interface mass flow rate check value iteration history trace: 9.626636E-002,9.626636E-002,9.626636E-002,9.626636E-002,9.626636E-002,9.626636E-002,9.626636E-002,9.626636E-002,9.626636E-002,9.626636E-002,
   **   ~~~   ** Supply-to-demand interface deck 1 mass flow rate check value iteration history trace: 9.626636E-002,9.626636E-002,9.626636E-002,9.626636E-002,9.626636E-002,9.626636E-002,9.626636E-002,9.626636E-002,9.626636E-002,9.626636E-002,
   **   ~~~   ** Air System Named = CENTRAL SYSTEM did not converge for energy
   **   ~~~   ** Check values should be zero. Most Recent values listed first.
   **   ~~~   ** Demand-to-Supply interface energy check value iteration history trace: 1900.346520,1900.346520,1900.346520,1900.346520,1900.346520,1900.346520,1900.346520,1900.346519,1900.346519,1900.346519,
   **   ~~~   ** Supply-to-demand interface deck 1 energy check value iteration history trace: 2862.799837,2862.799837,2862.799837,2862.799836,2862.799836,2862.799836,2862.799836,2862.799836,2862.799835,2862.799835,
   ** Warning ** SimHVAC: Maximum iterations (20) exceeded for all HVAC loops, at ANNUAL, 01/29 16:45 - 17:00
   **   ~~~   ** The solution for one or more of the Air Loop HVAC systems did not appear to converge
   **   ~~~   ** Air System Named = CENTRAL SYSTEM did not converge for mass flow rate
   **   ~~~   ** Check values should be zero. Most Recent values listed first.
   **   ~~~   ** Demand-to-Supply interface mass flow rate check value iteration history trace: 5.947826E-002,5.947826E-002,5.947826E-002,5.947826E-002,5.947826E-002,5.947826E-002,5.947826E-002,5.947826E-002,5.947826E-002,5.947826E-002,
   **   ~~~   ** Supply-to-demand interface deck 1 mass flow rate check value iteration history trace: 5.947826E-002,5.947826E-002,5.947826E-002,5.947826E-002,5.947826E-002,5.947826E-002,5.947826E-002,5.947826E-002,5.947826E-002,5.947826E-002,
   **   ~~~   ** Air System Named = CENTRAL SYSTEM did not converge for energy
   **   ~~~   ** Check values should be zero. Most Recent values listed first.
   **   ~~~   ** Demand-to-Supply interface energy check value iteration history trace: 1159.290811,1159.290811,1159.290811,1159.290811,1159.290811,1159.290810,1159.290810,1159.290810,1159.290810,1159.290810,
   **   ~~~   ** Supply-to-demand interface deck 1 energy check value iteration history trace: 2056.408039,2056.408039,2056.408039,2056.408039,2056.408039,2056.408039,2056.408038,2056.408038,2056.408038,2056.408038,
   ** Warning ** SimHVAC: Maximum iterations (20) exceeded for all HVAC loops, at ANNUAL, 02/03 11:03 - 11:06
   **   ~~~   ** The solution for one or more of the Air Loop HVAC systems did not appear to converge
   **   ~~~   ** Air System Named = CENTRAL SYSTEM did not converge for mass flow rate
   **   ~~~   ** Check values should be zero. Most Recent values listed first.
   **   ~~~   ** Demand-to-Supply interface mass flow rate check value iteration history trace: 7.047034E-002,7.047034E-002,7.047034E-002,7.047034E-002,7.047034E-002,7.047034E-002,7.047034E-002,7.047034E-002,7.047034E-002,7.047034E-002,
   **   ~~~   ** Supply-to-demand interface deck 1 mass flow rate check value iteration history trace: 7.047034E-002,7.047034E-002,7.047034E-002,7.047034E-002,7.047034E-002,7.047034E-002,7.047034E-002,7.047034E-002,7.047034E-002,7.047034E-002,
   **   ~~~   ** Air System Named = CENTRAL SYSTEM did not converge for energy
   **   ~~~   ** Check values should be zero. Most Recent values listed first.
   **   ~~~   ** Demand-to-Supply interface energy check value iteration history trace: 1396.593640,1396.593640,1396.593640,1396.593640,1396.593639,1396.593639,1396.593639,1396.593639,1396.593639,1396.593639,
   **   ~~~   ** Supply-to-demand interface deck 1 energy check value iteration history trace: 2237.081722,2237.081722,2237.081722,2237.081722,2237.081722,2237.081722,2237.081722,2237.081721,2237.081721,2237.081721,
   ** Warning ** SimHVAC: Maximum iterations (20) exceeded for all HVAC loops, at ANNUAL, 02/09 18:15 - 18:30
   **   ~~~   ** The solution for one or more of the Air Loop HVAC systems did not appear to converge
   **   ~~~   ** Air System Named = CENTRAL SYSTEM did not converge for mass flow rate
   **   ~~~   ** Check values should be zero. Most Recent values listed first.
   **   ~~~   ** Demand-to-Supply interface mass flow rate check value iteration history trace: 3.742142E-002,3.742142E-002,3.742142E-002,3.742142E-002,3.742142E-002,3.742142E-002,3.742142E-002,3.742142E-002,3.742142E-002,3.742142E-002,
   **   ~~~   ** Supply-to-demand interface deck 1 mass flow rate check value iteration history trace: 3.742142E-002,3.742142E-002,3.742142E-002,3.742142E-002,3.742142E-002,3.742142E-002,3.742142E-002,3.742142E-002,3.742142E-002,3.742142E-002,
   **   ~~~   ** Air System Named = CENTRAL SYSTEM did not converge for energy
   **   ~~~   ** Check values should be zero. Most Recent values listed first.
   **   ~~~   ** Demand-to-Supply interface energy check value iteration history trace: 738.713820,738.713820,738.713820,738.713820,738.713820,738.713820,738.713820,738.713820,738.713820,738.713820,
   **   ~~~   ** Supply-to-demand interface deck 1 energy check value iteration history trace: 1294.113201,1294.113201,1294.113201,1294.113201,1294.113201,1294.113200,1294.113200,1294.113200,1294.113200,1294.113200,
   ** Warning ** SimHVAC: Maximum iterations (20) exceeded for all HVAC loops, at ANNUAL, 02/11 20:30 - 20:38
   **   ~~~   ** The solution for one or more of the Air Loop HVAC systems did not appear to converge
   **   ~~~   ** Air System Named = CENTRAL SYSTEM did not converge for mass flow rate
   **   ~~~   ** Check values should be zero. Most Recent values listed first.
   **   ~~~   ** Demand-to-Supply interface mass flow rate check value iteration history trace: 5.476731E-002,5.476731E-002,5.476731E-002,5.476731E-002,5.476731E-002,5.476731E-002,5.476731E-002,5.476731E-002,5.476731E-002,5.476731E-002,
   **   ~~~   ** Supply-to-demand interface deck 1 mass flow rate check value iteration history trace: 5.476731E-002,5.476731E-002,5.476731E-002,5.476731E-002,5.476731E-002,5.476731E-002,5.476731E-002,5.476731E-002,5.476731E-002,5.476731E-002,
   **   ~~~   ** Air System Named = CENTRAL SYSTEM did not converge for energy
   **   ~~~   ** Check values should be zero. Most Recent values listed first.
   **   ~~~   ** Demand-to-Supply interface energy check value iteration history trace: 1085.455602,1085.455602,1085.455602,1085.455602,1085.455601,1085.455601,1085.455601,1085.455601,1085.455601,1085.455601,
   **   ~~~   ** Supply-to-demand interface deck 1 energy check value iteration history trace: 1885.235443,1885.235443,1885.235443,1885.235443,1885.235443,1885.235443,1885.235443,1885.235443,1885.235443,1885.235443,
   ** Warning ** SimHVAC: Maximum iterations (20) exceeded for all HVAC loops, at ANNUAL, 03/05 13:38 - 13:45
   **   ~~~   ** The solution for one or more of the Air Loop HVAC systems did not appear to converge
   **   ~~~   ** Air System Named = CENTRAL SYSTEM did not converge for mass flow rate
   **   ~~~   ** Check values should be zero. Most Recent values listed first.
   **   ~~~   ** Demand-to-Supply interface mass flow rate check value iteration history trace: 4.709769E-002,4.709769E-002,4.709769E-002,4.709769E-002,4.709769E-002,4.709769E-002,4.709769E-002,4.709769E-002,4.709769E-002,4.709769E-002,
   **   ~~~   ** Supply-to-demand interface deck 1 mass flow rate check value iteration history trace: 4.709769E-002,4.709769E-002,4.709769E-002,4.709769E-002,4.709769E-002,4.709769E-002,4.709769E-002,4.709769E-002,4.709769E-002,4.709769E-002,
   **   ~~~   ** Air System Named = CENTRAL SYSTEM did not converge for energy
   **   ~~~   ** Check values should be zero. Most Recent values listed first.
   **   ~~~   ** Demand-to-Supply interface energy check value iteration history trace: 928.380757,928.380757,928.380757,928.380757,928.380757,928.380757,928.380757,928.380757,928.380757,928.380757,
   **   ~~~   ** Supply-to-demand interface deck 1 energy check value iteration history trace: 1775.066565,1775.066565,1775.066565,1775.066565,1775.066565,1775.066565,1775.066564,1775.066564,1775.066564,1775.066564,
   ** Warning ** SimHVAC: Maximum iterations (20) exceeded for all HVAC loops, at ANNUAL, 03/10 18:45 - 18:52
   **   ~~~   ** The solution for one or more of the Air Loop HVAC systems did not appear to converge
   **   ~~~   ** Air System Named = CENTRAL SYSTEM did not converge for mass flow rate
   **   ~~~   ** Check values should be zero. Most Recent values listed first.
   **   ~~~   ** Demand-to-Supply interface mass flow rate check value iteration history trace: 5.917233E-002,5.917233E-002,5.917233E-002,5.917233E-002,5.917233E-002,5.917233E-002,5.917233E-002,5.917233E-002,5.917233E-002,5.917233E-002,
   **   ~~~   ** Supply-to-demand interface deck 1 mass flow rate check value iteration history trace: 5.917233E-002,5.917233E-002,5.917233E-002,5.917233E-002,5.917233E-002,5.917233E-002,5.917233E-002,5.917233E-002,5.917233E-002,5.917233E-002,
   **   ~~~   ** Air System Named = CENTRAL SYSTEM did not converge for energy
   **   ~~~   ** Check values should be zero. Most Recent values listed first.
   **   ~~~   ** Demand-to-Supply interface energy check value iteration history trace: 1171.004886,1171.004885,1171.004885,1171.004885,1171.004885,1171.004885,1171.004885,1171.004885,1171.004885,1171.004885,
   **   ~~~   ** Supply-to-demand interface deck 1 energy check value iteration history trace: 2034.506878,2034.506878,2034.506878,2034.506878,2034.506878,2034.506877,2034.506877,2034.506877,2034.506877,2034.506877,
   ** Warning ** SimHVAC: Maximum iterations (20) exceeded for all HVAC loops, at ANNUAL, 03/15 09:32 - 09:33
   **   ~~~   ** The solution for one or more of the Air Loop HVAC systems did not appear to converge
   **   ~~~   ** Air System Named = CENTRAL SYSTEM did not converge for mass flow rate
   **   ~~~   ** Check values should be zero. Most Recent values listed first.
   **   ~~~   ** Demand-to-Supply interface mass flow rate check value iteration history trace: 5.777798E-002,5.777798E-002,5.777798E-002,5.777798E-002,5.777798E-002,5.777798E-002,5.777798E-002,5.777798E-002,5.777798E-002,5.777798E-002,
   **   ~~~   ** Supply-to-demand interface deck 1 mass flow rate check value iteration history trace: 5.777798E-002,5.777798E-002,5.777798E-002,5.777798E-002,5.777798E-002,5.777798E-002,5.777798E-002,5.777798E-002,5.777798E-002,5.777798E-002,
   **   ~~~   ** Air System Named = CENTRAL SYSTEM did not converge for energy
   **   ~~~   ** Check values should be zero. Most Recent values listed first.
   **   ~~~   ** Demand-to-Supply interface energy check value iteration history trace: 1142.598892,1142.598892,1142.598892,1142.598892,1142.598892,1142.598892,1142.598892,1142.598892,1142.598892,1142.598892,
   **   ~~~   ** Supply-to-demand interface deck 1 energy check value iteration history trace: 2046.293266,2046.293265,2046.293265,2046.293265,2046.293265,2046.293265,2046.293265,2046.293265,2046.293265,2046.293265,
   ** Warning ** SimHVAC: Maximum iterations (20) exceeded for all HVAC loops, at ANNUAL, 03/21 09:30 - 09:45
   **   ~~~   ** The solution for one or more of the Air Loop HVAC systems did not appear to converge
   **   ~~~   ** Air System Named = CENTRAL SYSTEM did not converge for mass flow rate
   **   ~~~   ** Check values should be zero. Most Recent values listed first.
   **   ~~~   ** Demand-to-Supply interface mass flow rate check value iteration history trace: 6.335713E-002,6.335713E-002,6.335713E-002,6.335713E-002,6.335713E-002,6.335713E-002,6.335713E-002,6.335713E-002,6.335713E-002,6.335713E-002,
   **   ~~~   ** Supply-to-demand interface deck 1 mass flow rate check value iteration history trace: 6.335713E-002,6.335713E-002,6.335713E-002,6.335713E-002,6.335713E-002,6.335713E-002,6.335713E-002,6.335713E-002,6.335713E-002,6.335713E-002,
   **   ~~~   ** Air System Named = CENTRAL SYSTEM did not converge for energy
   **   ~~~   ** Check values should be zero. Most Recent values listed first.
   **   ~~~   ** Demand-to-Supply interface energy check value iteration history trace: 1255.551051,1255.551050,1255.551050,1255.551050,1255.551050,1255.551050,1255.551050,1255.551050,1255.551050,1255.551050,
   **   ~~~   ** Supply-to-demand interface deck 1 energy check value iteration history trace: 2032.685438,2032.685438,2032.685437,2032.685437,2032.685437,2032.685437,2032.685437,2032.685437,2032.685437,2032.685437,
   ** Warning ** SimHVAC: Maximum iterations (20) exceeded for all HVAC loops, at ANNUAL, 03/26 10:45 - 10:50
   **   ~~~   ** The solution for one or more of the Air Loop HVAC systems did not appear to converge
   **   ~~~   ** Air System Named = CENTRAL SYSTEM did not converge for mass flow rate
   **   ~~~   ** Check values should be zero. Most Recent values listed first.
   **   ~~~   ** Demand-to-Supply interface mass flow rate check value iteration history trace: 6.476999E-002,6.476999E-002,6.476999E-002,6.476999E-002,6.476999E-002,6.476999E-002,6.476999E-002,6.476999E-002,6.476999E-002,6.476999E-002,
   **   ~~~   ** Supply-to-demand interface deck 1 mass flow rate check value iteration history trace: 6.476999E-002,6.476999E-002,6.476999E-002,6.476999E-002,6.476999E-002,6.476999E-002,6.476999E-002,6.476999E-002,6.476999E-002,6.476999E-002,
   **   ~~~   ** Air System Named = CENTRAL SYSTEM did not converge for energy
   **   ~~~   ** Check values should be zero. Most Recent values listed first.
   **   ~~~   ** Demand-to-Supply interface energy check value iteration history trace: 1283.478760,1283.478760,1283.478760,1283.478760,1283.478760,1283.478759,1283.478759,1283.478759,1283.478759,1283.478759,
   **   ~~~   ** Supply-to-demand interface deck 1 energy check value iteration history trace: 2312.307254,2312.307254,2312.307254,2312.307254,2312.307254,2312.307254,2312.307254,2312.307254,2312.307253,2312.307253,
   ** Warning ** SimHVAC: Maximum iterations (20) exceeded for all HVAC loops, at ANNUAL, 03/29 17:15 - 17:30
   **   ~~~   ** The solution for one or more of the Air Loop HVAC systems did not appear to converge
   **   ~~~   ** Air System Named = CENTRAL SYSTEM did not converge for mass flow rate
   **   ~~~   ** Check values should be zero. Most Recent values listed first.
   **   ~~~   ** Demand-to-Supply interface mass flow rate check value iteration history trace: 5.891237E-002,5.891237E-002,5.891237E-002,5.891237E-002,5.891237E-002,5.891237E-002,5.891237E-002,5.891237E-002,5.891237E-002,5.891237E-002,
   **   ~~~   ** Supply-to-demand interface deck 1 mass flow rate check value iteration history trace: 5.891237E-002,5.891237E-002,5.891237E-002,5.891237E-002,5.891237E-002,5.891237E-002,5.891237E-002,5.891237E-002,5.891237E-002,5.891237E-002,
   **   ~~~   ** Air System Named = CENTRAL SYSTEM did not converge for energy
   **   ~~~   ** Check values should be zero. Most Recent values listed first.
   **   ~~~   ** Demand-to-Supply interface energy check value iteration history trace: 1151.595675,1151.595675,1151.595674,1151.595674,1151.595674,1151.595674,1151.595674,1151.595674,1151.595674,1151.595674,
   **   ~~~   ** Supply-to-demand interface deck 1 energy check value iteration history trace: 2050.950408,2050.950408,2050.950408,2050.950408,2050.950408,2050.950408,2050.950407,2050.950407,2050.950407,2050.950407,
   ** Warning ** SimHVAC: Maximum iterations (20) exceeded for all HVAC loops, at ANNUAL, 04/03 09:42 - 09:43
   **   ~~~   ** The solution for one or more of the Air Loop HVAC systems did not appear to converge
   **   ~~~   ** Air System Named = CENTRAL SYSTEM did not converge for mass flow rate
   **   ~~~   ** Check values should be zero. Most Recent values listed first.
   **   ~~~   ** Demand-to-Supply interface mass flow rate check value iteration history trace: 6.100821E-002,6.100821E-002,6.100821E-002,6.100821E-002,6.100821E-002,6.100821E-002,6.100821E-002,6.100821E-002,6.100821E-002,6.100821E-002,
   **   ~~~   ** Supply-to-demand interface deck 1 mass flow rate check value iteration history trace: 6.100821E-002,6.100821E-002,6.100821E-002,6.100821E-002,6.100821E-002,6.100821E-002,6.100821E-002,6.100821E-002,6.100821E-002,6.100821E-002,
   **   ~~~   ** Air System Named = CENTRAL SYSTEM did not converge for energy
   **   ~~~   ** Check values should be zero. Most Recent values listed first.
   **   ~~~   ** Demand-to-Supply interface energy check value iteration history trace: 1205.163338,1205.163338,1205.163338,1205.163338,1205.163338,1205.163338,1205.163337,1205.163337,1205.163337,1205.163337,
   **   ~~~   ** Supply-to-demand interface deck 1 energy check value iteration history trace: 2166.153273,2166.153272,2166.153272,2166.153272,2166.153272,2166.153272,2166.153272,2166.153272,2166.153272,2166.153272,
   ** Warning ** SimHVAC: Maximum iterations (20) exceeded for all HVAC loops, at ANNUAL, 04/07 07:20 - 07:25
   **   ~~~   ** The solution for one or more of the Air Loop HVAC systems did not appear to converge
   **   ~~~   ** Air System Named = CENTRAL SYSTEM did not converge for mass flow rate
   **   ~~~   ** Check values should be zero. Most Recent values listed first.
   **   ~~~   ** Demand-to-Supply interface mass flow rate check value iteration history trace: 5.857502E-002,5.857502E-002,5.857502E-002,5.857502E-002,5.857502E-002,5.857502E-002,5.857502E-002,5.857502E-002,5.857502E-002,5.857502E-002,
   **   ~~~   ** Supply-to-demand interface deck 1 mass flow rate check value iteration history trace: 5.857502E-002,5.857502E-002,5.857502E-002,5.857502E-002,5.857502E-002,5.857502E-002,5.857502E-002,5.857502E-002,5.857502E-002,5.857502E-002,
   **   ~~~   ** Air System Named = CENTRAL SYSTEM did not converge for energy
   **   ~~~   ** Check values should be zero. Most Recent values listed first.
   **   ~~~   ** Demand-to-Supply interface energy check value iteration history trace: 1160.729152,1160.729152,1160.729152,1160.729152,1160.729152,1160.729152,1160.729151,1160.729151,1160.729151,1160.729151,
   **   ~~~   ** Supply-to-demand interface deck 1 energy check value iteration history trace: 2067.200136,2067.200136,2067.200136,2067.200135,2067.200135,2067.200135,2067.200135,2067.200135,2067.200135,2067.200135,
   ************* Simulation Error Summary *************
   ** Warning ** The following Report Variables were requested but not generated -- check.rdd file
   **   ~~~   ** Either the IDF did not contain these elements, the variable name is misspelled,
   **   ~~~   ** or the requested variable is an advanced output which requires Output : Diagnostics, DisplayAdvancedReportVariables;
   ************* Key=*, VarName=BASEBOARD TOTAL HEATING ENERGY, Frequency=
   ************* Key=*, VarName=WATER HEATER NATURALGAS ENERGY, Frequency=
   ************* Key=*, VarName=COOLING COIL TOTAL HEATING ENERGY, Frequency=
   ************* There are 34 unused schedules in input.
   ************* There are 388 unused week schedules in input.
   ************* There are 396 unused day schedules in input.
   ************* Use Output:Diagnostics,DisplayUnusedSchedules; to see them.
   *************
   ************* ===== Recurring Error Summary =====
   ************* The following recurring error messages occurred.
   *************
   *************  ** Warning ** "TOTAL HOT WATER LOAD" - Target water temperature should be less than or equal to the hot water temperature error continues...
   *************  **   ~~~   **   This error occurred 131991 total times;
   *************  **   ~~~   **   during Warmup 0 times;
   *************  **   ~~~   **   during Sizing 0 times.
   *************  **   ~~~   **   Max=12.63431  Min=1.526429E-003
   *************
   *************  ** Warning ** SimHVAC: Exceeding Maximum iterations for all HVAC loops, during ANNUAL continues
   *************  **   ~~~   **   This error occurred 19 total times;
   *************  **   ~~~   **   during Warmup 0 times;
   *************  **   ~~~   **   during Sizing 0 times.
   *************
   *************
   ************* ===== Final Error Summary =====
   ************* The following error categories occurred.  Consider correcting or noting.
   ************* Loads Initialization did not Converge
   ************* ..1) very high thermal mass such as very thick concrete (solution: increase max number of warmup
   ************* ..   days in the BUILDING object);
   ************* ..2) moderate mass and inadequate space conditioning such that the building keeps getting warmer
   ************* ..   and warmer on successive days (solution: add HVAC, check building thermal properties,
   ************* ..   check if infiltration is included, make sure HVAC properly controlled);
   ************* ..3) a soil layer modeled below the concrete slab - (solution remove this layer and read about
   ************* ..   ground temperatures in the Auxiliary Programs document).
   ************* ..4) unreasonable (too small) limits in the BUILDING object for temperature (.4 default) or
   ************* ..   loads tolerances (.04 default)
   ************* Nominally Unused Constructions
   ************* ..The nominally unused constructions warning is provided to alert you to potential conditions that can cause
   ************* ..extra time during simulation. Each construction is calculated by the algorithm indicated in the HeatBalanceAlgorithm
   ************* ..object. You may remove the constructions indicated (when you use the DisplayExtraWarnings option).
   *************
   ************* EnergyPlus Warmup Error Summary. During Warmup: 1 Warning; 1 Severe Errors.
   ************* EnergyPlus Sizing Error Summary. During Sizing: 4 Warning; 0 Severe Errors.
   ************* EnergyPlus Completed Successfully-- 132042 Warning; 1 Severe Errors; Elapsed Time=00hr 01min 45.51sec
