Program Version,EnergyPlus, Version 22.2.0-c249759bad, YMD=2023.09.01 17:24,
   ************* Beginning Zone Sizing Calculations
   ** Warning ** ProcessScheduleInput: Schedule:Constant="ALWAYS ON DISCRETE", Schedule Type Limits Name="ONOFF" not found -- will not be validated
   ** Warning ** Foundation:Kiva="KIVA FOUNDATION", no Interior Horizontal Insulation Material Name defined
   **   ~~~   ** Interior Horizontal Insulation Depth will not be used.
   ** Warning ** CheckUsedConstructions: There are 15 nominally unused constructions in input.
   **   ~~~   ** Each Unused construction is shown.
   ************* Construction=INTERIOR FLOOR
   ************* Construction=INTERIOR WINDOW
   ************* Construction=EXTERIOR DOOR
   ************* Construction=INTERIOR DOOR
   ************* Construction=GABLE CONSTRUCTION
   ************* Construction=CRAWL_FLOOR
   ************* Construction=INSULATED PIPE
   ************* Construction=PLAIN PIPE
   ************* Construction=TDD PIPE
   ************* Construction=TDD DOME
   ************* Construction=TDD DIFFUSER
   ************* Construction=CRAWL WALL
   ************* Construction=CEILING-FLOOR-LAYER
   ************* Construction=SLAB CONSTRUCTION W FULL R10 INSULATION
   ************* Construction=SLAB CONSTRUCTION W FULL R5 INSULATION
   ** Warning ** GetDXCoils: Coil:Heating:DX:SingleSpeed="DX_HEATING_COIL" curve values
   **   ~~~   ** ... Defrost Energy Input Ratio Function of Temperature Curve Name = DEFROSTEIR output is not equal to 1.0 (+ or - 10%) at rated conditions.
   **   ~~~   ** ... Curve output at rated conditions = 0.152
   ************* Beginning System Sizing Calculations
   ************* Beginning Plant Sizing Calculations
   ** Warning ** SizeDXCoil Coil:Cooling:DX:SingleSpeed DX_COOLING_COIL
   **   ~~~   ** ...Gross Rated Total Cooling Capacity [W] will be limited by the maximum rated volume flow per rated total capacity ratio.
   **   ~~~   ** ...DX coil volume flow rate ( m3/s ) = 0.447706
   **   ~~~   ** ...Requested capacity ( W ) = 7372.205
   **   ~~~   ** ...Requested flow/capacity ratio ( m3/s/W ) = 6.072E-005
   **   ~~~   ** ...Maximum flow/capacity ratio ( m3/s/W ) = 6.041E-005
   **   ~~~   ** ...Adjusted capacity ( W ) = 7411.129
   ** Warning ** Coil:WaterHeating:AirToWaterHeatPump:Wrapped "HEAT PUMP WATER HEATER EVAPORATOR": Rated air volume flow rate per watt of rated total water heating capacity is out of range
   **   ~~~   ** Min Rated Vol Flow Per Watt=[4.027E-005], Rated Vol Flow Per Watt=[1.510E-004], Max Rated Vol Flow Per Watt=[8.056E-005]. See Input-Output Reference Manual for valid range.
   ************* SizeFan: : Potential issue with equipment sizing for Fan:OnOff HEAT PUMP WATER HEATER FAN
   **   ~~~   ** User-Specified Maximum Flow Rate [m3/s] = 0.22653
   **   ~~~   ** differs from Design Size Maximum Flow Rate [m3/s] = 7.55250E-002
   **   ~~~   ** This may, or may not, indicate mismatched component sizes.
   **   ~~~   ** Verify that the value entered is intended and is consistent with other components.
   ** Warning ** Water heater = WATER HEATER TANK:  Recovery Efficiency and Energy Factor could not be calculated during the test for standard ratings
   **   ~~~   ** Setpoint was never recovered and/or heater never turned on
   ** Warning ** Check input. Pump nominal power or motor efficiency is set to 0, for pump=MAINS PRESSURE
   ** Warning ** Output:Meter: invalid Key Name="ELECTRIC_RANGE:INTERIOREQUIPMENT:ELECTRICITY" - not found.
   ** Warning ** Output:Meter: invalid Key Name="ELECTRIC_DRYER:INTERIOREQUIPMENT:ELECTRICITY" - not found.
   ** Warning ** Output:Meter: invalid Key Name="HEATRECOVERY:ELECTRICITY" - not found.
   ** Warning ** Output:Meter: invalid Key Name="HEATING:NATURALGAS" - not found.
   ** Warning ** Output:Meter: invalid Key Name="WATERSYSTEMS:NATURALGAS" - not found.
   ** Warning ** Output:Meter: invalid Key Name="PROPANE:FACILITY" - not found.
   ** Warning ** Output:Meter: invalid Key Name="HEATING:PROPANE" - not found.
   ************* Testing Individual Branch Integrity
   ************* All Branches passed integrity testing
   ************* Testing Individual Supply Air Path Integrity
   ************* All Supply Air Paths passed integrity testing
   ************* Testing Individual Return Air Path Integrity
   ************* All Return Air Paths passed integrity testing
   ************* No node connection errors were found.
   ************* Beginning Simulation
   ** Warning ** AirflowNetwork::Solver::validate_distribution: Heat pump water heater is simulated along with an AirflowNetwork but is not included in the AirflowNetwork.
   ** Warning ** CalcEquipmentFlowRates: "TOTAL HOT WATER LOAD" - Target water temperature is greater than the hot water temperature by (0.90 C)
   **   ~~~   **  Environment=EXTREME_WINTER, at Simulation time=01/13 06:00 - 06:15
   **   ~~~   ** ...target water temperature     = 53.33 C
   **   ~~~   ** ...hot water temperature        = 52.44 C
   **   ~~~   ** ...Target water temperature should be less than or equal to the hot water temperature. Verify temperature setpoints and schedules.
   ** Warning ** SimHVAC: Maximum iterations (20) exceeded for all HVAC loops, at ANNUAL, 01/29 14:00 - 14:15
   **   ~~~   ** The solution for one or more of the Air Loop HVAC systems did not appear to converge
   **   ~~~   ** Air System Named = CENTRAL SYSTEM did not converge for mass flow rate
   **   ~~~   ** Check values should be zero. Most Recent values listed first.
   **   ~~~   ** Demand-to-Supply interface mass flow rate check value iteration history trace: 2.687695E-002,2.687695E-002,2.687695E-002,2.687695E-002,2.687695E-002,2.687695E-002,2.687695E-002,2.687695E-002,2.687695E-002,2.687695E-002,
   **   ~~~   ** Supply-to-demand interface deck 1 mass flow rate check value iteration history trace: 2.687695E-002,2.687695E-002,2.687695E-002,2.687695E-002,2.687695E-002,2.687695E-002,2.687695E-002,2.687695E-002,2.687695E-002,2.687695E-002,
   **   ~~~   ** Air System Named = CENTRAL SYSTEM did not converge for energy
   **   ~~~   ** Check values should be zero. Most Recent values listed first.
   **   ~~~   ** Demand-to-Supply interface energy check value iteration history trace: 532.592201,532.592201,532.592201,532.592201,532.592201,532.592201,532.592201,532.592201,532.592201,532.592201,
   **   ~~~   ** Supply-to-demand interface deck 1 energy check value iteration history trace: 904.157655,904.157655,904.157655,904.157655,904.157655,904.157655,904.157655,904.157655,904.157655,904.157655,
   ** Warning ** SimHVAC: Maximum iterations (20) exceeded for all HVAC loops, at ANNUAL, 03/04 10:45 - 10:49
   **   ~~~   ** The solution for one or more of the Air Loop HVAC systems did not appear to converge
   **   ~~~   ** Air System Named = CENTRAL SYSTEM did not converge for mass flow rate
   **   ~~~   ** Check values should be zero. Most Recent values listed first.
   **   ~~~   ** Demand-to-Supply interface mass flow rate check value iteration history trace: 6.497642E-002,6.497642E-002,6.497642E-002,6.497642E-002,6.497642E-002,6.497642E-002,6.497642E-002,6.497642E-002,6.497642E-002,6.497642E-002,
   **   ~~~   ** Supply-to-demand interface deck 1 mass flow rate check value iteration history trace: 6.497642E-002,6.497642E-002,6.497642E-002,6.497642E-002,6.497642E-002,6.497642E-002,6.497642E-002,6.497642E-002,6.497642E-002,6.497642E-002,
   **   ~~~   ** Air System Named = CENTRAL SYSTEM did not converge for energy
   **   ~~~   ** Check values should be zero. Most Recent values listed first.
   **   ~~~   ** Demand-to-Supply interface energy check value iteration history trace: 1287.625852,1287.625852,1287.625852,1287.625852,1287.625852,1287.625852,1287.625852,1287.625852,1287.625852,1287.625851,
   **   ~~~   ** Supply-to-demand interface deck 1 energy check value iteration history trace: 2248.930355,2248.930355,2248.930355,2248.930355,2248.930355,2248.930355,2248.930355,2248.930355,2248.930354,2248.930354,
   ** Warning ** SimHVAC: Maximum iterations (20) exceeded for all HVAC loops, at ANNUAL, 03/12 13:45 - 14:00
   **   ~~~   ** The solution for one or more of the Air Loop HVAC systems did not appear to converge
   **   ~~~   ** Air System Named = CENTRAL SYSTEM did not converge for mass flow rate
   **   ~~~   ** Check values should be zero. Most Recent values listed first.
   **   ~~~   ** Demand-to-Supply interface mass flow rate check value iteration history trace: 5.767891E-002,5.767891E-002,5.767891E-002,5.767891E-002,5.767891E-002,5.767891E-002,5.767891E-002,5.767891E-002,5.767891E-002,5.767891E-002,
   **   ~~~   ** Supply-to-demand interface deck 1 mass flow rate check value iteration history trace: 5.767891E-002,5.767891E-002,5.767891E-002,5.767891E-002,5.767891E-002,5.767891E-002,5.767891E-002,5.767891E-002,5.767891E-002,5.767891E-002,
   **   ~~~   ** Air System Named = CENTRAL SYSTEM did not converge for energy
   **   ~~~   ** Check values should be zero. Most Recent values listed first.
   **   ~~~   ** Demand-to-Supply interface energy check value iteration history trace: 1143.044712,1143.044712,1143.044712,1143.044712,1143.044712,1143.044711,1143.044711,1143.044711,1143.044711,1143.044711,
   **   ~~~   ** Supply-to-demand interface deck 1 energy check value iteration history trace: 1788.789017,1788.789017,1788.789016,1788.789016,1788.789016,1788.789016,1788.789016,1788.789016,1788.789016,1788.789016,
   ** Warning ** SimHVAC: Maximum iterations (20) exceeded for all HVAC loops, at ANNUAL, 03/14 09:47 - 09:49
   **   ~~~   ** The solution for one or more of the Air Loop HVAC systems did not appear to converge
   **   ~~~   ** Air System Named = CENTRAL SYSTEM did not converge for mass flow rate
   **   ~~~   ** Check values should be zero. Most Recent values listed first.
   **   ~~~   ** Demand-to-Supply interface mass flow rate check value iteration history trace: 6.144713E-002,6.144713E-002,6.144713E-002,6.144713E-002,6.144713E-002,6.144713E-002,6.144713E-002,6.144713E-002,6.144713E-002,6.144713E-002,
   **   ~~~   ** Supply-to-demand interface deck 1 mass flow rate check value iteration history trace: 6.144713E-002,6.144713E-002,6.144713E-002,6.144713E-002,6.144713E-002,6.144713E-002,6.144713E-002,6.144713E-002,6.144713E-002,6.144713E-002,
   **   ~~~   ** Air System Named = CENTRAL SYSTEM did not converge for energy
   **   ~~~   ** Check values should be zero. Most Recent values listed first.
   **   ~~~   ** Demand-to-Supply interface energy check value iteration history trace: 1216.118196,1216.118196,1216.118196,1216.118196,1216.118196,1216.118196,1216.118196,1216.118196,1216.118196,1216.118196,
   **   ~~~   ** Supply-to-demand interface deck 1 energy check value iteration history trace: 2100.578369,2100.578368,2100.578368,2100.578368,2100.578368,2100.578368,2100.578368,2100.578368,2100.578368,2100.578368,
   ** Warning ** SimHVAC: Maximum iterations (20) exceeded for all HVAC loops, at ANNUAL, 03/19 08:30 - 08:35
   **   ~~~   ** The solution for one or more of the Air Loop HVAC systems did not appear to converge
   **   ~~~   ** Air System Named = CENTRAL SYSTEM did not converge for mass flow rate
   **   ~~~   ** Check values should be zero. Most Recent values listed first.
   **   ~~~   ** Demand-to-Supply interface mass flow rate check value iteration history trace: 6.309015E-002,6.309015E-002,6.309015E-002,6.309015E-002,6.309015E-002,6.309015E-002,6.309015E-002,6.309015E-002,6.309015E-002,6.309015E-002,
   **   ~~~   ** Supply-to-demand interface deck 1 mass flow rate check value iteration history trace: 6.309015E-002,6.309015E-002,6.309015E-002,6.309015E-002,6.309015E-002,6.309015E-002,6.309015E-002,6.309015E-002,6.309015E-002,6.309015E-002,
   **   ~~~   ** Air System Named = CENTRAL SYSTEM did not converge for energy
   **   ~~~   ** Check values should be zero. Most Recent values listed first.
   **   ~~~   ** Demand-to-Supply interface energy check value iteration history trace: 1246.683122,1246.683122,1246.683121,1246.683121,1246.683121,1246.683121,1246.683121,1246.683121,1246.683121,1246.683121,
   **   ~~~   ** Supply-to-demand interface deck 1 energy check value iteration history trace: 2161.154814,2161.154814,2161.154814,2161.154814,2161.154814,2161.154814,2161.154814,2161.154814,2161.154814,2161.154814,
   ** Warning ** SimHVAC: Maximum iterations (20) exceeded for all HVAC loops, at ANNUAL, 04/15 18:30 - 18:45
   **   ~~~   ** The solution for one or more of the Air Loop HVAC systems did not appear to converge
   **   ~~~   ** Air System Named = CENTRAL SYSTEM did not converge for mass flow rate
   **   ~~~   ** Check values should be zero. Most Recent values listed first.
   **   ~~~   ** Demand-to-Supply interface mass flow rate check value iteration history trace: 6.215699E-002,6.215699E-002,6.215699E-002,6.215699E-002,6.215699E-002,6.215699E-002,6.215699E-002,6.215699E-002,6.215699E-002,6.215699E-002,
   **   ~~~   ** Supply-to-demand interface deck 1 mass flow rate check value iteration history trace: 6.215699E-002,6.215699E-002,6.215699E-002,6.215699E-002,6.215699E-002,6.215699E-002,6.215699E-002,6.215699E-002,6.215699E-002,6.215699E-002,
   **   ~~~   ** Air System Named = CENTRAL SYSTEM did not converge for energy
   **   ~~~   ** Check values should be zero. Most Recent values listed first.
   **   ~~~   ** Demand-to-Supply interface energy check value iteration history trace: 1231.478289,1231.478289,1231.478289,1231.478289,1231.478289,1231.478289,1231.478289,1231.478289,1231.478289,1231.478289,
   **   ~~~   ** Supply-to-demand interface deck 1 energy check value iteration history trace: 2098.763515,2098.763515,2098.763514,2098.763514,2098.763514,2098.763514,2098.763514,2098.763514,2098.763514,2098.763514,
   ** Warning ** SimHVAC: Maximum iterations (20) exceeded for all HVAC loops, at ANNUAL, 04/26 08:30 - 08:45
   **   ~~~   ** The solution for one or more of the Air Loop HVAC systems did not appear to converge
   **   ~~~   ** Air System Named = CENTRAL SYSTEM did not converge for mass flow rate
   **   ~~~   ** Check values should be zero. Most Recent values listed first.
   **   ~~~   ** Demand-to-Supply interface mass flow rate check value iteration history trace: 5.266789E-002,5.266789E-002,5.266789E-002,5.266789E-002,5.266789E-002,5.266789E-002,5.266789E-002,5.266789E-002,5.266789E-002,5.266789E-002,
   **   ~~~   ** Supply-to-demand interface deck 1 mass flow rate check value iteration history trace: 5.266789E-002,5.266789E-002,5.266789E-002,5.266789E-002,5.266789E-002,5.266789E-002,5.266789E-002,5.266789E-002,5.266789E-002,5.266789E-002,
   **   ~~~   ** Air System Named = CENTRAL SYSTEM did not converge for energy
   **   ~~~   ** Check values should be zero. Most Recent values listed first.
   **   ~~~   ** Demand-to-Supply interface energy check value iteration history trace: 1044.896742,1044.896742,1044.896742,1044.896742,1044.896742,1044.896742,1044.896742,1044.896742,1044.896742,1044.896742,
   **   ~~~   ** Supply-to-demand interface deck 1 energy check value iteration history trace: 1824.638366,1824.638366,1824.638366,1824.638366,1824.638366,1824.638366,1824.638366,1824.638366,1824.638365,1824.638365,
   ** Warning ** SimHVAC: Maximum iterations (20) exceeded for all HVAC loops, at ANNUAL, 05/01 08:15 - 08:30
   **   ~~~   ** The solution for one or more of the Air Loop HVAC systems did not appear to converge
   **   ~~~   ** Air System Named = CENTRAL SYSTEM did not converge for mass flow rate
   **   ~~~   ** Check values should be zero. Most Recent values listed first.
   **   ~~~   ** Demand-to-Supply interface mass flow rate check value iteration history trace: 2.215146E-002,2.215146E-002,2.215146E-002,2.215146E-002,2.215146E-002,2.215146E-002,2.215146E-002,2.215146E-002,2.215146E-002,2.215146E-002,
   **   ~~~   ** Supply-to-demand interface deck 1 mass flow rate check value iteration history trace: 2.215146E-002,2.215146E-002,2.215146E-002,2.215146E-002,2.215146E-002,2.215146E-002,2.215146E-002,2.215146E-002,2.215146E-002,2.215146E-002,
   **   ~~~   ** Air System Named = CENTRAL SYSTEM did not converge for energy
   **   ~~~   ** Check values should be zero. Most Recent values listed first.
   **   ~~~   ** Demand-to-Supply interface energy check value iteration history trace: 434.755940,434.755940,434.755940,434.755940,434.755940,434.755940,434.755940,434.755940,434.755940,434.755940,
   **   ~~~   ** Supply-to-demand interface deck 1 energy check value iteration history trace: 759.566821,759.566821,759.566821,759.566821,759.566821,759.566821,759.566821,759.566821,759.566821,759.566821,
   ** Warning ** SimHVAC: Maximum iterations (20) exceeded for all HVAC loops, at ANNUAL, 05/12 19:38 - 19:45
   **   ~~~   ** The solution for one or more of the Air Loop HVAC systems did not appear to converge
   **   ~~~   ** Air System Named = CENTRAL SYSTEM did not converge for energy
   **   ~~~   ** Check values should be zero. Most Recent values listed first.
   **   ~~~   ** Demand-to-Supply interface energy check value iteration history trace: 119.360985,119.360985,119.360985,119.360985,119.360985,119.360985,119.360985,119.360985,119.360985,119.360985,
   **   ~~~   ** Supply-to-demand interface deck 1 energy check value iteration history trace: 57.944883,57.944883,57.944883,57.944883,57.944883,57.944883,57.944883,57.944883,57.944883,57.944883,
   ** Warning ** SimHVAC: Maximum iterations (20) exceeded for all HVAC loops, at ANNUAL, 11/07 08:00 - 08:15
   **   ~~~   ** The solution for one or more of the Air Loop HVAC systems did not appear to converge
   **   ~~~   ** Air System Named = CENTRAL SYSTEM did not converge for mass flow rate
   **   ~~~   ** Check values should be zero. Most Recent values listed first.
   **   ~~~   ** Demand-to-Supply interface mass flow rate check value iteration history trace: 6.329373E-002,6.329373E-002,6.329373E-002,6.329373E-002,6.329373E-002,6.329373E-002,6.329373E-002,6.329373E-002,6.329373E-002,6.329373E-002,
   **   ~~~   ** Supply-to-demand interface deck 1 mass flow rate check value iteration history trace: 6.329373E-002,6.329373E-002,6.329373E-002,6.329373E-002,6.329373E-002,6.329373E-002,6.329373E-002,6.329373E-002,6.329373E-002,6.329373E-002,
   **   ~~~   ** Air System Named = CENTRAL SYSTEM did not converge for energy
   **   ~~~   ** Check values should be zero. Most Recent values listed first.
   **   ~~~   ** Demand-to-Supply interface energy check value iteration history trace: 1249.920584,1249.920584,1249.920584,1249.920584,1249.920584,1249.920584,1249.920584,1249.920584,1249.920584,1249.920584,
   **   ~~~   ** Supply-to-demand interface deck 1 energy check value iteration history trace: 2223.425765,2223.425765,2223.425765,2223.425765,2223.425765,2223.425765,2223.425765,2223.425764,2223.425764,2223.425764,
   ** Warning ** SimHVAC: Maximum iterations (20) exceeded for all HVAC loops, at ANNUAL, 11/21 17:00 - 17:15
   **   ~~~   ** The solution for one or more of the Air Loop HVAC systems did not appear to converge
   **   ~~~   ** Air System Named = CENTRAL SYSTEM did not converge for mass flow rate
   **   ~~~   ** Check values should be zero. Most Recent values listed first.
   **   ~~~   ** Demand-to-Supply interface mass flow rate check value iteration history trace: 6.496962E-002,6.496962E-002,6.496962E-002,6.496962E-002,6.496962E-002,6.496962E-002,6.496962E-002,6.496962E-002,6.496962E-002,6.496962E-002,
   **   ~~~   ** Supply-to-demand interface deck 1 mass flow rate check value iteration history trace: 6.496962E-002,6.496962E-002,6.496962E-002,6.496962E-002,6.496962E-002,6.496962E-002,6.496962E-002,6.496962E-002,6.496962E-002,6.496962E-002,
   **   ~~~   ** Air System Named = CENTRAL SYSTEM did not converge for energy
   **   ~~~   ** Check values should be zero. Most Recent values listed first.
   **   ~~~   ** Demand-to-Supply interface energy check value iteration history trace: 1283.966299,1283.966299,1283.966299,1283.966299,1283.966299,1283.966299,1283.966299,1283.966299,1283.966299,1283.966298,
   **   ~~~   ** Supply-to-demand interface deck 1 energy check value iteration history trace: 2168.046979,2168.046979,2168.046979,2168.046979,2168.046979,2168.046979,2168.046979,2168.046979,2168.046978,2168.046978,
   ** Warning ** SimHVAC: Maximum iterations (20) exceeded for all HVAC loops, at ANNUAL, 11/26 08:30 - 08:45
   **   ~~~   ** The solution for one or more of the Air Loop HVAC systems did not appear to converge
   **   ~~~   ** Air System Named = CENTRAL SYSTEM did not converge for mass flow rate
   **   ~~~   ** Check values should be zero. Most Recent values listed first.
   **   ~~~   ** Demand-to-Supply interface mass flow rate check value iteration history trace: 5.319195E-002,5.319195E-002,5.319195E-002,5.319195E-002,5.319195E-002,5.319195E-002,5.319195E-002,5.319195E-002,5.319195E-002,5.319195E-002,
   **   ~~~   ** Supply-to-demand interface deck 1 mass flow rate check value iteration history trace: 5.319195E-002,5.319195E-002,5.319195E-002,5.319195E-002,5.319195E-002,5.319195E-002,5.319195E-002,5.319195E-002,5.319195E-002,5.319195E-002,
   **   ~~~   ** Air System Named = CENTRAL SYSTEM did not converge for energy
   **   ~~~   ** Check values should be zero. Most Recent values listed first.
   **   ~~~   ** Demand-to-Supply interface energy check value iteration history trace: 1055.364279,1055.364279,1055.364279,1055.364279,1055.364279,1055.364279,1055.364279,1055.364279,1055.364279,1055.364279,
   **   ~~~   ** Supply-to-demand interface deck 1 energy check value iteration history trace: 1865.183760,1865.183760,1865.183760,1865.183760,1865.183760,1865.183760,1865.183760,1865.183760,1865.183760,1865.183759,
   ** Warning ** SimHVAC: Maximum iterations (20) exceeded for all HVAC loops, at ANNUAL, 12/08 11:15 - 11:22
   **   ~~~   ** The solution for one or more of the Air Loop HVAC systems did not appear to converge
   **   ~~~   ** Air System Named = CENTRAL SYSTEM did not converge for mass flow rate
   **   ~~~   ** Check values should be zero. Most Recent values listed first.
   **   ~~~   ** Demand-to-Supply interface mass flow rate check value iteration history trace: 5.903932E-002,5.903932E-002,5.903932E-002,5.903932E-002,5.903932E-002,5.903932E-002,5.903932E-002,5.903932E-002,5.903932E-002,5.903932E-002,
   **   ~~~   ** Supply-to-demand interface deck 1 mass flow rate check value iteration history trace: 5.903932E-002,5.903932E-002,5.903932E-002,5.903932E-002,5.903932E-002,5.903932E-002,5.903932E-002,5.903932E-002,5.903932E-002,5.903932E-002,
   **   ~~~   ** Air System Named = CENTRAL SYSTEM did not converge for energy
   **   ~~~   ** Check values should be zero. Most Recent values listed first.
   **   ~~~   ** Demand-to-Supply interface energy check value iteration history trace: 1168.568542,1168.568542,1168.568542,1168.568542,1168.568542,1168.568542,1168.568542,1168.568542,1168.568542,1168.568542,
   **   ~~~   ** Supply-to-demand interface deck 1 energy check value iteration history trace: 2014.766900,2014.766900,2014.766899,2014.766899,2014.766899,2014.766899,2014.766899,2014.766899,2014.766899,2014.766899,
   ** Warning ** SimHVAC: Maximum iterations (20) exceeded for all HVAC loops, at ANNUAL, 12/09 10:30 - 10:45
   **   ~~~   ** The solution for one or more of the Air Loop HVAC systems did not appear to converge
   **   ~~~   ** Air System Named = CENTRAL SYSTEM did not converge for mass flow rate
   **   ~~~   ** Check values should be zero. Most Recent values listed first.
   **   ~~~   ** Demand-to-Supply interface mass flow rate check value iteration history trace: 9.478044E-002,9.478044E-002,9.478044E-002,9.478044E-002,9.478044E-002,9.478044E-002,9.478044E-002,9.478044E-002,9.478044E-002,9.478044E-002,
   **   ~~~   ** Supply-to-demand interface deck 1 mass flow rate check value iteration history trace: 9.478044E-002,9.478044E-002,9.478044E-002,9.478044E-002,9.478044E-002,9.478044E-002,9.478044E-002,9.478044E-002,9.478044E-002,9.478044E-002,
   **   ~~~   ** Air System Named = CENTRAL SYSTEM did not converge for energy
   **   ~~~   ** Check values should be zero. Most Recent values listed first.
   **   ~~~   ** Demand-to-Supply interface energy check value iteration history trace: 1878.138415,1878.138414,1878.138414,1878.138414,1878.138414,1878.138414,1878.138414,1878.138414,1878.138413,1878.138413,
   **   ~~~   ** Supply-to-demand interface deck 1 energy check value iteration history trace: 2826.052891,2826.052891,2826.052890,2826.052890,2826.052890,2826.052890,2826.052890,2826.052889,2826.052889,2826.052889,
   ************* Simulation Error Summary *************
   ** Warning ** The following Report Variables were requested but not generated -- check.rdd file
   **   ~~~   ** Either the IDF did not contain these elements, the variable name is misspelled,
   **   ~~~   ** or the requested variable is an advanced output which requires Output : Diagnostics, DisplayAdvancedReportVariables;
   ************* Key=*, VarName=BASEBOARD TOTAL HEATING ENERGY, Frequency=
   ************* Key=*, VarName=WATER HEATER NATURALGAS ENERGY, Frequency=
   ************* Key=*, VarName=COOLING COIL TOTAL HEATING ENERGY, Frequency=
   ************* There are 34 unused schedules in input.
   ************* There are 388 unused week schedules in input.
   ************* There are 396 unused day schedules in input.
   ************* Use Output:Diagnostics,DisplayUnusedSchedules; to see them.
   *************
   ************* ===== Recurring Error Summary =====
   ************* The following recurring error messages occurred.
   *************
   *************  ** Warning ** "TOTAL HOT WATER LOAD" - Target water temperature should be less than or equal to the hot water temperature error continues...
   *************  **   ~~~   **   This error occurred 121919 total times;
   *************  **   ~~~   **   during Warmup 0 times;
   *************  **   ~~~   **   during Sizing 0 times.
   *************  **   ~~~   **   Max=9.998574  Min=1.130903E-003
   *************
   *************
   ************* ===== Final Error Summary =====
   ************* The following error categories occurred.  Consider correcting or noting.
   ************* Nominally Unused Constructions
   ************* ..The nominally unused constructions warning is provided to alert you to potential conditions that can cause
   ************* ..extra time during simulation. Each construction is calculated by the algorithm indicated in the HeatBalanceAlgorithm
   ************* ..object. You may remove the constructions indicated (when you use the DisplayExtraWarnings option).
   *************
   ************* EnergyPlus Warmup Error Summary. During Warmup: 1 Warning; 0 Severe Errors.
   ************* EnergyPlus Sizing Error Summary. During Sizing: 4 Warning; 0 Severe Errors.
   ************* EnergyPlus Completed Successfully-- 121951 Warning; 0 Severe Errors; Elapsed Time=00hr 05min 37.33sec
