Program Version,EnergyPlus, Version 22.2.0-c249759bad, YMD=2023.09.01 18:51,
   ************* Beginning Zone Sizing Calculations
   ** Warning ** ProcessScheduleInput: Schedule:Constant="ALWAYS ON DISCRETE", Schedule Type Limits Name="ONOFF" not found -- will not be validated
   ** Warning ** Foundation:Kiva="KIVA FOUNDATION", no Interior Horizontal Insulation Material Name defined
   **   ~~~   ** Interior Horizontal Insulation Depth will not be used.
   ** Warning ** CheckUsedConstructions: There are 15 nominally unused constructions in input.
   **   ~~~   ** Each Unused construction is shown.
   ************* Construction=INTERIOR FLOOR
   ************* Construction=INTERIOR WINDOW
   ************* Construction=EXTERIOR DOOR
   ************* Construction=INTERIOR DOOR
   ************* Construction=GABLE CONSTRUCTION
   ************* Construction=CRAWL_FLOOR
   ************* Construction=INSULATED PIPE
   ************* Construction=PLAIN PIPE
   ************* Construction=TDD PIPE
   ************* Construction=TDD DOME
   ************* Construction=TDD DIFFUSER
   ************* Construction=CRAWL WALL
   ************* Construction=CEILING-FLOOR-LAYER
   ************* Construction=SLAB CONSTRUCTION W FULL R10 INSULATION
   ************* Construction=SLAB CONSTRUCTION W FULL R5 INSULATION
   ** Warning ** GetDXCoils: Coil:Heating:DX:SingleSpeed="DX_HEATING_COIL" curve values
   **   ~~~   ** ... Defrost Energy Input Ratio Function of Temperature Curve Name = DEFROSTEIR output is not equal to 1.0 (+ or - 10%) at rated conditions.
   **   ~~~   ** ... Curve output at rated conditions = 0.152
   ************* Beginning System Sizing Calculations
   ************* Beginning Plant Sizing Calculations
   ** Warning ** SizeDXCoil Coil:Cooling:DX:SingleSpeed DX_COOLING_COIL
   **   ~~~   ** ...Gross Rated Total Cooling Capacity [W] will be limited by the maximum rated volume flow per rated total capacity ratio.
   **   ~~~   ** ...DX coil volume flow rate ( m3/s ) = 0.359287
   **   ~~~   ** ...Requested capacity ( W ) = 5441.877
   **   ~~~   ** ...Requested flow/capacity ratio ( m3/s/W ) = 6.602E-005
   **   ~~~   ** ...Maximum flow/capacity ratio ( m3/s/W ) = 6.041E-005
   **   ~~~   ** ...Adjusted capacity ( W ) = 5947.490
   ** Warning ** SizeDXCoil Coil:Heating:DX:SingleSpeed DX_HEATING_COIL
   **   ~~~   ** ...Gross Rated Heating Capacity [W] will be limited by the maximum rated volume flow per rated total capacity ratio.
   **   ~~~   ** ...DX coil volume flow rate ( m3/s ) = 0.359287
   **   ~~~   ** ...Requested capacity ( W ) = 5947.490
   **   ~~~   ** ...Requested flow/capacity ratio ( m3/s/W ) = 6.041E-005
   **   ~~~   ** ...Maximum flow/capacity ratio ( m3/s/W ) = 6.041E-005
   **   ~~~   ** ...Adjusted capacity ( W ) = 5947.490
   ** Warning ** Coil:WaterHeating:AirToWaterHeatPump:Wrapped "HEAT PUMP WATER HEATER EVAPORATOR": Rated air volume flow rate per watt of rated total water heating capacity is out of range
   **   ~~~   ** Min Rated Vol Flow Per Watt=[4.027E-005], Rated Vol Flow Per Watt=[1.510E-004], Max Rated Vol Flow Per Watt=[8.056E-005]. See Input-Output Reference Manual for valid range.
   ************* SizeFan: : Potential issue with equipment sizing for Fan:OnOff HEAT PUMP WATER HEATER FAN
   **   ~~~   ** User-Specified Maximum Flow Rate [m3/s] = 0.22653
   **   ~~~   ** differs from Design Size Maximum Flow Rate [m3/s] = 7.55250E-002
   **   ~~~   ** This may, or may not, indicate mismatched component sizes.
   **   ~~~   ** Verify that the value entered is intended and is consistent with other components.
   ** Warning ** Water heater = WATER HEATER TANK:  Recovery Efficiency and Energy Factor could not be calculated during the test for standard ratings
   **   ~~~   ** Setpoint was never recovered and/or heater never turned on
   ** Warning ** Check input. Pump nominal power or motor efficiency is set to 0, for pump=MAINS PRESSURE
   ** Warning ** Output:Meter: invalid Key Name="ELECTRIC_RANGE:INTERIOREQUIPMENT:ELECTRICITY" - not found.
   ** Warning ** Output:Meter: invalid Key Name="ELECTRIC_DRYER:INTERIOREQUIPMENT:ELECTRICITY" - not found.
   ** Warning ** Output:Meter: invalid Key Name="HEATRECOVERY:ELECTRICITY" - not found.
   ** Warning ** Output:Meter: invalid Key Name="HEATING:NATURALGAS" - not found.
   ** Warning ** Output:Meter: invalid Key Name="WATERSYSTEMS:NATURALGAS" - not found.
   ** Warning ** Output:Meter: invalid Key Name="PROPANE:FACILITY" - not found.
   ** Warning ** Output:Meter: invalid Key Name="HEATING:PROPANE" - not found.
   ************* Testing Individual Branch Integrity
   ************* All Branches passed integrity testing
   ************* Testing Individual Supply Air Path Integrity
   ************* All Supply Air Paths passed integrity testing
   ************* Testing Individual Return Air Path Integrity
   ************* All Return Air Paths passed integrity testing
   ************* No node connection errors were found.
   ************* Beginning Simulation
   ** Warning ** AirflowNetwork::Solver::validate_distribution: Heat pump water heater is simulated along with an AirflowNetwork but is not included in the AirflowNetwork.
   ** Warning ** CalcEquipmentFlowRates: "TOTAL HOT WATER LOAD" - Target water temperature is greater than the hot water temperature by (0.73 C)
   **   ~~~   **  Environment=EXTREME_WINTER, at Simulation time=01/15 03:45 - 04:00
   **   ~~~   ** ...target water temperature     = 53.33 C
   **   ~~~   ** ...hot water temperature        = 52.60 C
   **   ~~~   ** ...Target water temperature should be less than or equal to the hot water temperature. Verify temperature setpoints and schedules.
   ** Warning ** SimHVAC: Maximum iterations (20) exceeded for all HVAC loops, at EXTREME_SUMMER, 07/25 05:55 - 06:00
   **   ~~~   ** The solution for one or more of the Air Loop HVAC systems did not appear to converge
   **   ~~~   ** Air System Named = CENTRAL SYSTEM did not converge for mass flow rate
   **   ~~~   ** Check values should be zero. Most Recent values listed first.
   **   ~~~   ** Demand-to-Supply interface mass flow rate check value iteration history trace: 4.875344E-002,4.875344E-002,4.875344E-002,4.875344E-002,4.875344E-002,4.875344E-002,4.875344E-002,4.875344E-002,4.875344E-002,4.875344E-002,
   **   ~~~   ** Supply-to-demand interface deck 1 mass flow rate check value iteration history trace: 4.875344E-002,4.875344E-002,4.875344E-002,4.875344E-002,4.875344E-002,4.875344E-002,4.875344E-002,4.875344E-002,4.875344E-002,4.875344E-002,
   **   ~~~   ** Air System Named = CENTRAL SYSTEM did not converge for energy
   **   ~~~   ** Check values should be zero. Most Recent values listed first.
   **   ~~~   ** Demand-to-Supply interface energy check value iteration history trace: 1146.960687,1146.960687,1146.960688,1146.960688,1146.960688,1146.960689,1146.960689,1146.960690,1146.960690,1146.960691,
   **   ~~~   ** Supply-to-demand interface deck 1 energy check value iteration history trace: 618.986005,618.986005,618.986005,618.986006,618.986006,618.986006,618.986006,618.986007,618.986007,618.986007,
   ** Warning ** SimHVAC: Maximum iterations (20) exceeded for all HVAC loops, at EXTREME_SUMMER, 07/27 00:15 - 00:30
   **   ~~~   ** The solution for one or more of the Air Loop HVAC systems did not appear to converge
   **   ~~~   ** Air System Named = CENTRAL SYSTEM did not converge for mass flow rate
   **   ~~~   ** Check values should be zero. Most Recent values listed first.
   **   ~~~   ** Demand-to-Supply interface mass flow rate check value iteration history trace: 8.873496E-002,8.873496E-002,8.873496E-002,8.873496E-002,8.873496E-002,8.873496E-002,8.873496E-002,8.873496E-002,8.873496E-002,8.873496E-002,
   **   ~~~   ** Supply-to-demand interface deck 1 mass flow rate check value iteration history trace: 8.873496E-002,8.873496E-002,8.873496E-002,8.873496E-002,8.873496E-002,8.873496E-002,8.873496E-002,8.873496E-002,8.873496E-002,8.873496E-002,
   **   ~~~   ** Air System Named = CENTRAL SYSTEM did not converge for energy
   **   ~~~   ** Check values should be zero. Most Recent values listed first.
   **   ~~~   ** Demand-to-Supply interface energy check value iteration history trace: 2212.575948,2212.575949,2212.575950,2212.575951,2212.575952,2212.575952,2212.575953,2212.575954,2212.575955,2212.575956,
   **   ~~~   ** Supply-to-demand interface deck 1 energy check value iteration history trace: 1137.654557,1137.654558,1137.654558,1137.654559,1137.654559,1137.654559,1137.654560,1137.654560,1137.654561,1137.654561,
   ** Warning ** SimHVAC: Maximum iterations (20) exceeded for all HVAC loops, at ANNUAL, 01/12 08:38 - 08:45
   **   ~~~   ** The solution for one or more of the Air Loop HVAC systems did not appear to converge
   **   ~~~   ** Air System Named = CENTRAL SYSTEM did not converge for mass flow rate
   **   ~~~   ** Check values should be zero. Most Recent values listed first.
   **   ~~~   ** Demand-to-Supply interface mass flow rate check value iteration history trace: 1.100529E-002,1.100529E-002,1.100529E-002,1.100529E-002,1.100529E-002,1.100529E-002,1.100529E-002,1.100529E-002,1.100529E-002,1.100529E-002,
   **   ~~~   ** Supply-to-demand interface deck 1 mass flow rate check value iteration history trace: 1.100529E-002,1.100529E-002,1.100529E-002,1.100529E-002,1.100529E-002,1.100529E-002,1.100529E-002,1.100529E-002,1.100529E-002,1.100529E-002,
   **   ~~~   ** Air System Named = CENTRAL SYSTEM did not converge for energy
   **   ~~~   ** Check values should be zero. Most Recent values listed first.
   **   ~~~   ** Demand-to-Supply interface energy check value iteration history trace: 216.844271,216.844271,216.844271,216.844271,216.844271,216.844271,216.844271,216.844271,216.844271,216.844271,
   **   ~~~   ** Supply-to-demand interface deck 1 energy check value iteration history trace: 396.129604,396.129604,396.129604,396.129604,396.129604,396.129604,396.129604,396.129604,396.129604,396.129604,
   ** Warning ** SimHVAC: Maximum iterations (20) exceeded for all HVAC loops, at ANNUAL, 01/14 08:38 - 08:41
   **   ~~~   ** The solution for one or more of the Air Loop HVAC systems did not appear to converge
   **   ~~~   ** Air System Named = CENTRAL SYSTEM did not converge for mass flow rate
   **   ~~~   ** Check values should be zero. Most Recent values listed first.
   **   ~~~   ** Demand-to-Supply interface mass flow rate check value iteration history trace: 5.228249E-002,5.228249E-002,5.228249E-002,5.228249E-002,5.228249E-002,5.228249E-002,5.228249E-002,5.228249E-002,5.228249E-002,5.228249E-002,
   **   ~~~   ** Supply-to-demand interface deck 1 mass flow rate check value iteration history trace: 5.228249E-002,5.228249E-002,5.228249E-002,5.228249E-002,5.228249E-002,5.228249E-002,5.228249E-002,5.228249E-002,5.228249E-002,5.228249E-002,
   **   ~~~   ** Air System Named = CENTRAL SYSTEM did not converge for energy
   **   ~~~   ** Check values should be zero. Most Recent values listed first.
   **   ~~~   ** Demand-to-Supply interface energy check value iteration history trace: 1036.063835,1036.063835,1036.063835,1036.063835,1036.063835,1036.063835,1036.063834,1036.063834,1036.063834,1036.063834,
   **   ~~~   ** Supply-to-demand interface deck 1 energy check value iteration history trace: 1810.295582,1810.295582,1810.295582,1810.295582,1810.295582,1810.295582,1810.295582,1810.295582,1810.295582,1810.295582,
   ** Warning ** SimHVAC: Maximum iterations (20) exceeded for all HVAC loops, at ANNUAL, 01/21 10:38 - 10:45
   **   ~~~   ** The solution for one or more of the Air Loop HVAC systems did not appear to converge
   **   ~~~   ** Air System Named = CENTRAL SYSTEM did not converge for mass flow rate
   **   ~~~   ** Check values should be zero. Most Recent values listed first.
   **   ~~~   ** Demand-to-Supply interface mass flow rate check value iteration history trace: 4.747825E-002,4.747825E-002,4.747825E-002,4.747825E-002,4.747825E-002,4.747825E-002,4.747825E-002,4.747825E-002,4.747825E-002,4.747825E-002,
   **   ~~~   ** Supply-to-demand interface deck 1 mass flow rate check value iteration history trace: 4.747825E-002,4.747825E-002,4.747825E-002,4.747825E-002,4.747825E-002,4.747825E-002,4.747825E-002,4.747825E-002,4.747825E-002,4.747825E-002,
   **   ~~~   ** Air System Named = CENTRAL SYSTEM did not converge for energy
   **   ~~~   ** Check values should be zero. Most Recent values listed first.
   **   ~~~   ** Demand-to-Supply interface energy check value iteration history trace: 928.796559,928.796559,928.796559,928.796559,928.796559,928.796559,928.796559,928.796559,928.796559,928.796559,
   **   ~~~   ** Supply-to-demand interface deck 1 energy check value iteration history trace: 1699.880823,1699.880823,1699.880823,1699.880822,1699.880822,1699.880822,1699.880822,1699.880822,1699.880822,1699.880822,
   ** Warning ** SimHVAC: Maximum iterations (20) exceeded for all HVAC loops, at ANNUAL, 03/31 08:07 - 08:08
   **   ~~~   ** The solution for one or more of the Air Loop HVAC systems did not appear to converge
   **   ~~~   ** Air System Named = CENTRAL SYSTEM did not converge for mass flow rate
   **   ~~~   ** Check values should be zero. Most Recent values listed first.
   **   ~~~   ** Demand-to-Supply interface mass flow rate check value iteration history trace: 0.363992,0.363992,0.363992,0.363992,0.363992,0.363992,0.363992,0.363992,0.363992,0.363992,
   **   ~~~   ** Supply-to-demand interface deck 1 mass flow rate check value iteration history trace: 0.363992,0.363992,0.363992,0.363992,0.363992,0.363992,0.363992,0.363992,0.363992,0.363992,
   **   ~~~   ** Air System Named = CENTRAL SYSTEM did not converge for energy
   **   ~~~   ** Check values should be zero. Most Recent values listed first.
   **   ~~~   ** Demand-to-Supply interface energy check value iteration history trace: 8636.923459,8636.923460,8636.923462,8636.923463,8636.923464,8636.923466,8636.923467,8636.923468,8636.923470,8636.923471,
   **   ~~~   ** Supply-to-demand interface deck 1 energy check value iteration history trace: 4222.503111,4222.503112,4222.503113,4222.503113,4222.503114,4222.503115,4222.503115,4222.503116,4222.503117,4222.503117,
   ** Warning ** SimHVAC: Maximum iterations (20) exceeded for all HVAC loops, at ANNUAL, 12/07 12:55 - 13:00
   **   ~~~   ** The solution for one or more of the Air Loop HVAC systems did not appear to converge
   **   ~~~   ** Air System Named = CENTRAL SYSTEM did not converge for mass flow rate
   **   ~~~   ** Check values should be zero. Most Recent values listed first.
   **   ~~~   ** Demand-to-Supply interface mass flow rate check value iteration history trace: 0.273501,0.273501,0.273501,0.273501,0.273501,0.273501,0.273501,0.273501,0.273501,0.273501,
   **   ~~~   ** Supply-to-demand interface deck 1 mass flow rate check value iteration history trace: 0.273501,0.273501,0.273501,0.273501,0.273501,0.273501,0.273501,0.273501,0.273501,0.273501,
   **   ~~~   ** Air System Named = CENTRAL SYSTEM did not converge for energy
   **   ~~~   ** Check values should be zero. Most Recent values listed first.
   **   ~~~   ** Demand-to-Supply interface energy check value iteration history trace: 6552.654728,6552.654729,6552.654729,6552.654730,6552.654730,6552.654731,6552.654731,6552.654732,6552.654732,6552.654732,
   **   ~~~   ** Supply-to-demand interface deck 1 energy check value iteration history trace: 3191.465325,3191.465326,3191.465326,3191.465326,3191.465326,3191.465327,3191.465327,3191.465327,3191.465327,3191.465327,
   ** Warning ** SimHVAC: Maximum iterations (20) exceeded for all HVAC loops, at ANNUAL, 12/09 10:53 - 10:56
   **   ~~~   ** The solution for one or more of the Air Loop HVAC systems did not appear to converge
   **   ~~~   ** Air System Named = CENTRAL SYSTEM did not converge for mass flow rate
   **   ~~~   ** Check values should be zero. Most Recent values listed first.
   **   ~~~   ** Demand-to-Supply interface mass flow rate check value iteration history trace: 0.339726,0.339726,0.339726,0.339726,0.339726,0.339726,0.339726,0.339726,0.339726,0.339726,
   **   ~~~   ** Supply-to-demand interface deck 1 mass flow rate check value iteration history trace: 0.339726,0.339726,0.339726,0.339726,0.339726,0.339726,0.339726,0.339726,0.339726,0.339726,
   **   ~~~   ** Air System Named = CENTRAL SYSTEM did not converge for energy
   **   ~~~   ** Check values should be zero. Most Recent values listed first.
   **   ~~~   ** Demand-to-Supply interface energy check value iteration history trace: 8143.665979,8143.665980,8143.665982,8143.665983,8143.665984,8143.665985,8143.665986,8143.665988,8143.665989,8143.665990,
   **   ~~~   ** Supply-to-demand interface deck 1 energy check value iteration history trace: 3907.279110,3907.279110,3907.279111,3907.279111,3907.279112,3907.279112,3907.279113,3907.279114,3907.279114,3907.279115,
   ** Warning ** SimHVAC: Maximum iterations (20) exceeded for all HVAC loops, at ANNUAL, 12/11 13:00 - 13:15
   **   ~~~   ** The solution for one or more of the Air Loop HVAC systems did not appear to converge
   **   ~~~   ** Air System Named = CENTRAL SYSTEM did not converge for mass flow rate
   **   ~~~   ** Check values should be zero. Most Recent values listed first.
   **   ~~~   ** Demand-to-Supply interface mass flow rate check value iteration history trace: 0.115930,0.115930,0.115930,0.115930,0.115930,0.115930,0.115930,0.115930,0.115930,0.115930,
   **   ~~~   ** Supply-to-demand interface deck 1 mass flow rate check value iteration history trace: 0.115930,0.115930,0.115930,0.115930,0.115930,0.115930,0.115930,0.115930,0.115930,0.115930,
   **   ~~~   ** Air System Named = CENTRAL SYSTEM did not converge for energy
   **   ~~~   ** Check values should be zero. Most Recent values listed first.
   **   ~~~   ** Demand-to-Supply interface energy check value iteration history trace: 2778.852591,2778.852592,2778.852592,2778.852592,2778.852592,2778.852592,2778.852593,2778.852593,2778.852593,2778.852593,
   **   ~~~   ** Supply-to-demand interface deck 1 energy check value iteration history trace: 1480.789483,1480.789483,1480.789483,1480.789483,1480.789483,1480.789484,1480.789484,1480.789484,1480.789484,1480.789484,
   ** Warning ** SimHVAC: Maximum iterations (20) exceeded for all HVAC loops, at ANNUAL, 12/12 08:35 - 08:38
   **   ~~~   ** The solution for one or more of the Air Loop HVAC systems did not appear to converge
   **   ~~~   ** Air System Named = CENTRAL SYSTEM did not converge for mass flow rate
   **   ~~~   ** Check values should be zero. Most Recent values listed first.
   **   ~~~   ** Demand-to-Supply interface mass flow rate check value iteration history trace: 0.170053,0.170053,0.170053,0.170053,0.170053,0.170053,0.170053,0.170053,0.170053,0.170053,
   **   ~~~   ** Supply-to-demand interface deck 1 mass flow rate check value iteration history trace: 0.170053,0.170053,0.170053,0.170053,0.170053,0.170053,0.170053,0.170053,0.170053,0.170053,
   **   ~~~   ** Air System Named = CENTRAL SYSTEM did not converge for energy
   **   ~~~   ** Check values should be zero. Most Recent values listed first.
   **   ~~~   ** Demand-to-Supply interface energy check value iteration history trace: 4026.435805,4026.435806,4026.435807,4026.435808,4026.435809,4026.435810,4026.435811,4026.435812,4026.435813,4026.435814,
   **   ~~~   ** Supply-to-demand interface deck 1 energy check value iteration history trace: 2177.350732,2177.350732,2177.350733,2177.350733,2177.350734,2177.350735,2177.350735,2177.350736,2177.350736,2177.350737,
   ** Warning ** SimHVAC: Maximum iterations (20) exceeded for all HVAC loops, at ANNUAL, 12/13 09:24 - 09:27
   **   ~~~   ** The solution for one or more of the Air Loop HVAC systems did not appear to converge
   **   ~~~   ** Air System Named = CENTRAL SYSTEM did not converge for mass flow rate
   **   ~~~   ** Check values should be zero. Most Recent values listed first.
   **   ~~~   ** Demand-to-Supply interface mass flow rate check value iteration history trace: 0.252546,0.252546,0.252546,0.252546,0.252546,0.252546,0.252546,0.252546,0.252546,0.252546,
   **   ~~~   ** Supply-to-demand interface deck 1 mass flow rate check value iteration history trace: 0.252546,0.252546,0.252546,0.252546,0.252546,0.252546,0.252546,0.252546,0.252546,0.252546,
   **   ~~~   ** Air System Named = CENTRAL SYSTEM did not converge for energy
   **   ~~~   ** Check values should be zero. Most Recent values listed first.
   **   ~~~   ** Demand-to-Supply interface energy check value iteration history trace: 5975.934376,5975.934377,5975.934378,5975.934380,5975.934381,5975.934383,5975.934384,5975.934386,5975.934387,5975.934388,
   **   ~~~   ** Supply-to-demand interface deck 1 energy check value iteration history trace: 3178.093172,3178.093173,3178.093174,3178.093174,3178.093175,3178.093176,3178.093177,3178.093177,3178.093178,3178.093179,
   ** Warning ** SimHVAC: Maximum iterations (20) exceeded for all HVAC loops, at ANNUAL, 12/25 06:23 - 06:30
   **   ~~~   ** The solution for one or more of the Air Loop HVAC systems did not appear to converge
   **   ~~~   ** Air System Named = CENTRAL SYSTEM did not converge for mass flow rate
   **   ~~~   ** Check values should be zero. Most Recent values listed first.
   **   ~~~   ** Demand-to-Supply interface mass flow rate check value iteration history trace: 6.303019E-002,6.303019E-002,6.303019E-002,6.303019E-002,6.303019E-002,6.303019E-002,6.303019E-002,6.303019E-002,6.303019E-002,6.303019E-002,
   **   ~~~   ** Supply-to-demand interface deck 1 mass flow rate check value iteration history trace: 6.303019E-002,6.303019E-002,6.303019E-002,6.303019E-002,6.303019E-002,6.303019E-002,6.303019E-002,6.303019E-002,6.303019E-002,6.303019E-002,
   **   ~~~   ** Air System Named = CENTRAL SYSTEM did not converge for energy
   **   ~~~   ** Check values should be zero. Most Recent values listed first.
   **   ~~~   ** Demand-to-Supply interface energy check value iteration history trace: 1248.625845,1248.625845,1248.625845,1248.625844,1248.625844,1248.625844,1248.625844,1248.625844,1248.625844,1248.625844,
   **   ~~~   ** Supply-to-demand interface deck 1 energy check value iteration history trace: 2194.950699,2194.950699,2194.950699,2194.950699,2194.950699,2194.950699,2194.950699,2194.950699,2194.950699,2194.950699,
   ** Warning ** SimHVAC: Maximum iterations (20) exceeded for all HVAC loops, at ANNUAL, 12/27 04:45 - 05:00
   **   ~~~   ** The solution for one or more of the Air Loop HVAC systems did not appear to converge
   **   ~~~   ** Air System Named = CENTRAL SYSTEM did not converge for mass flow rate
   **   ~~~   ** Check values should be zero. Most Recent values listed first.
   **   ~~~   ** Demand-to-Supply interface mass flow rate check value iteration history trace: 5.341921E-002,5.341921E-002,5.341921E-002,5.341921E-002,5.341921E-002,5.341921E-002,5.341921E-002,5.341921E-002,5.341921E-002,5.341921E-002,
   **   ~~~   ** Supply-to-demand interface deck 1 mass flow rate check value iteration history trace: 5.341921E-002,5.341921E-002,5.341921E-002,5.341921E-002,5.341921E-002,5.341921E-002,5.341921E-002,5.341921E-002,5.341921E-002,5.341921E-002,
   **   ~~~   ** Air System Named = CENTRAL SYSTEM did not converge for energy
   **   ~~~   ** Check values should be zero. Most Recent values listed first.
   **   ~~~   ** Demand-to-Supply interface energy check value iteration history trace: 997.913012,997.913012,997.913012,997.913012,997.913012,997.913012,997.913011,997.913011,997.913011,997.913011,
   **   ~~~   ** Supply-to-demand interface deck 1 energy check value iteration history trace: 1710.207390,1710.207390,1710.207390,1710.207389,1710.207389,1710.207389,1710.207389,1710.207389,1710.207389,1710.207389,
   ** Warning ** SimHVAC: Maximum iterations (20) exceeded for all HVAC loops, at ANNUAL, 12/28 07:30 - 07:45
   **   ~~~   ** The solution for one or more of the Air Loop HVAC systems did not appear to converge
   **   ~~~   ** Air System Named = CENTRAL SYSTEM did not converge for mass flow rate
   **   ~~~   ** Check values should be zero. Most Recent values listed first.
   **   ~~~   ** Demand-to-Supply interface mass flow rate check value iteration history trace: 7.271585E-002,7.271585E-002,7.271585E-002,7.271585E-002,7.271585E-002,7.271585E-002,7.271585E-002,7.271585E-002,7.271585E-002,7.271585E-002,
   **   ~~~   ** Supply-to-demand interface deck 1 mass flow rate check value iteration history trace: 7.271585E-002,7.271585E-002,7.271585E-002,7.271585E-002,7.271585E-002,7.271585E-002,7.271585E-002,7.271585E-002,7.271585E-002,7.271585E-002,
   **   ~~~   ** Air System Named = CENTRAL SYSTEM did not converge for energy
   **   ~~~   ** Check values should be zero. Most Recent values listed first.
   **   ~~~   ** Demand-to-Supply interface energy check value iteration history trace: 1440.109289,1440.109289,1440.109289,1440.109289,1440.109289,1440.109289,1440.109288,1440.109288,1440.109288,1440.109288,
   **   ~~~   ** Supply-to-demand interface deck 1 energy check value iteration history trace: 2455.036103,2455.036103,2455.036102,2455.036102,2455.036102,2455.036102,2455.036102,2455.036102,2455.036102,2455.036102,
   ************* Simulation Error Summary *************
   ** Warning ** The following Report Variables were requested but not generated -- check.rdd file
   **   ~~~   ** Either the IDF did not contain these elements, the variable name is misspelled,
   **   ~~~   ** or the requested variable is an advanced output which requires Output : Diagnostics, DisplayAdvancedReportVariables;
   ************* Key=*, VarName=BASEBOARD TOTAL HEATING ENERGY, Frequency=
   ************* Key=*, VarName=WATER HEATER NATURALGAS ENERGY, Frequency=
   ************* Key=*, VarName=COOLING COIL TOTAL HEATING ENERGY, Frequency=
   ************* There are 34 unused schedules in input.
   ************* There are 388 unused week schedules in input.
   ************* There are 396 unused day schedules in input.
   ************* Use Output:Diagnostics,DisplayUnusedSchedules; to see them.
   *************
   ************* ===== Recurring Error Summary =====
   ************* The following recurring error messages occurred.
   *************
   *************  ** Warning ** "TOTAL HOT WATER LOAD" - Target water temperature should be less than or equal to the hot water temperature error continues...
   *************  **   ~~~   **   This error occurred 73933 total times;
   *************  **   ~~~   **   during Warmup 0 times;
   *************  **   ~~~   **   during Sizing 0 times.
   *************  **   ~~~   **   Max=6.105614  Min=6.659650E-004
   *************
   *************
   ************* ===== Final Error Summary =====
   ************* The following error categories occurred.  Consider correcting or noting.
   ************* Nominally Unused Constructions
   ************* ..The nominally unused constructions warning is provided to alert you to potential conditions that can cause
   ************* ..extra time during simulation. Each construction is calculated by the algorithm indicated in the HeatBalanceAlgorithm
   ************* ..object. You may remove the constructions indicated (when you use the DisplayExtraWarnings option).
   *************
   ************* EnergyPlus Warmup Error Summary. During Warmup: 1 Warning; 0 Severe Errors.
   ************* EnergyPlus Sizing Error Summary. During Sizing: 4 Warning; 0 Severe Errors.
   ************* EnergyPlus Completed Successfully-- 73966 Warning; 0 Severe Errors; Elapsed Time=00hr 01min 45.25sec
