Program Version,EnergyPlus, Version 22.2.0-c249759bad, YMD=2023.09.01 18:58,
   ************* Beginning Zone Sizing Calculations
   ** Warning ** ProcessScheduleInput: Schedule:Constant="ALWAYS ON DISCRETE", Schedule Type Limits Name="ONOFF" not found -- will not be validated
   ** Warning ** Foundation:Kiva="KIVA FOUNDATION", no Interior Horizontal Insulation Material Name defined
   **   ~~~   ** Interior Horizontal Insulation Depth will not be used.
   ** Warning ** CheckUsedConstructions: There are 15 nominally unused constructions in input.
   **   ~~~   ** Each Unused construction is shown.
   ************* Construction=INTERIOR FLOOR
   ************* Construction=INTERIOR WINDOW
   ************* Construction=EXTERIOR DOOR
   ************* Construction=INTERIOR DOOR
   ************* Construction=GABLE CONSTRUCTION
   ************* Construction=CRAWL_FLOOR
   ************* Construction=INSULATED PIPE
   ************* Construction=PLAIN PIPE
   ************* Construction=TDD PIPE
   ************* Construction=TDD DOME
   ************* Construction=TDD DIFFUSER
   ************* Construction=CRAWL WALL
   ************* Construction=CEILING-FLOOR-LAYER
   ************* Construction=SLAB CONSTRUCTION W FULL R10 INSULATION
   ************* Construction=SLAB CONSTRUCTION W FULL R5 INSULATION
   ** Warning ** GetDXCoils: Coil:Heating:DX:SingleSpeed="DX_HEATING_COIL" curve values
   **   ~~~   ** ... Defrost Energy Input Ratio Function of Temperature Curve Name = DEFROSTEIR output is not equal to 1.0 (+ or - 10%) at rated conditions.
   **   ~~~   ** ... Curve output at rated conditions = 0.152
   ************* Beginning System Sizing Calculations
   ************* Beginning Plant Sizing Calculations
   ** Warning ** SizeDXCoil Coil:Cooling:DX:SingleSpeed DX_COOLING_COIL
   **   ~~~   ** ...Gross Rated Total Cooling Capacity [W] will be limited by the maximum rated volume flow per rated total capacity ratio.
   **   ~~~   ** ...DX coil volume flow rate ( m3/s ) = 0.531679
   **   ~~~   ** ...Requested capacity ( W ) = 7210.539
   **   ~~~   ** ...Requested flow/capacity ratio ( m3/s/W ) = 7.373E-005
   **   ~~~   ** ...Maximum flow/capacity ratio ( m3/s/W ) = 6.041E-005
   **   ~~~   ** ...Adjusted capacity ( W ) = 8801.178
   ** Warning ** Coil:WaterHeating:AirToWaterHeatPump:Wrapped "HEAT PUMP WATER HEATER EVAPORATOR": Rated air volume flow rate per watt of rated total water heating capacity is out of range
   **   ~~~   ** Min Rated Vol Flow Per Watt=[4.027E-005], Rated Vol Flow Per Watt=[1.510E-004], Max Rated Vol Flow Per Watt=[8.056E-005]. See Input-Output Reference Manual for valid range.
   ************* SizeFan: : Potential issue with equipment sizing for Fan:OnOff HEAT PUMP WATER HEATER FAN
   **   ~~~   ** User-Specified Maximum Flow Rate [m3/s] = 0.22653
   **   ~~~   ** differs from Design Size Maximum Flow Rate [m3/s] = 7.55250E-002
   **   ~~~   ** This may, or may not, indicate mismatched component sizes.
   **   ~~~   ** Verify that the value entered is intended and is consistent with other components.
   ** Warning ** Water heater = WATER HEATER TANK:  Recovery Efficiency and Energy Factor could not be calculated during the test for standard ratings
   **   ~~~   ** Setpoint was never recovered and/or heater never turned on
   ** Warning ** Check input. Pump nominal power or motor efficiency is set to 0, for pump=MAINS PRESSURE
   ** Warning ** Output:Meter: invalid Key Name="ELECTRIC_RANGE:INTERIOREQUIPMENT:ELECTRICITY" - not found.
   ** Warning ** Output:Meter: invalid Key Name="ELECTRIC_DRYER:INTERIOREQUIPMENT:ELECTRICITY" - not found.
   ** Warning ** Output:Meter: invalid Key Name="HEATRECOVERY:ELECTRICITY" - not found.
   ** Warning ** Output:Meter: invalid Key Name="HEATING:NATURALGAS" - not found.
   ** Warning ** Output:Meter: invalid Key Name="WATERSYSTEMS:NATURALGAS" - not found.
   ** Warning ** Output:Meter: invalid Key Name="PROPANE:FACILITY" - not found.
   ** Warning ** Output:Meter: invalid Key Name="HEATING:PROPANE" - not found.
   ************* Testing Individual Branch Integrity
   ************* All Branches passed integrity testing
   ************* Testing Individual Supply Air Path Integrity
   ************* All Supply Air Paths passed integrity testing
   ************* Testing Individual Return Air Path Integrity
   ************* All Return Air Paths passed integrity testing
   ************* No node connection errors were found.
   ************* Beginning Simulation
   ** Warning ** AirflowNetwork::Solver::validate_distribution: Heat pump water heater is simulated along with an AirflowNetwork but is not included in the AirflowNetwork.
   ** Warning ** CalcEquipmentFlowRates: "TOTAL HOT WATER LOAD" - Target water temperature is greater than the hot water temperature by (2.23 C)
   **   ~~~   **  Environment=EXTREME_WINTER, at Simulation time=01/13 03:45 - 04:00
   **   ~~~   ** ...target water temperature     = 53.33 C
   **   ~~~   ** ...hot water temperature        = 51.10 C
   **   ~~~   ** ...Target water temperature should be less than or equal to the hot water temperature. Verify temperature setpoints and schedules.
   ** Warning ** SimHVAC: Maximum iterations (20) exceeded for all HVAC loops, at EXTREME_WINTER, 01/18 10:17 - 10:19
   **   ~~~   ** The solution for one or more of the Air Loop HVAC systems did not appear to converge
   **   ~~~   ** Air System Named = CENTRAL SYSTEM did not converge for mass flow rate
   **   ~~~   ** Check values should be zero. Most Recent values listed first.
   **   ~~~   ** Demand-to-Supply interface mass flow rate check value iteration history trace: 6.406453E-002,6.406453E-002,6.406453E-002,6.406453E-002,6.406453E-002,6.406453E-002,6.406453E-002,6.406453E-002,6.406453E-002,6.406453E-002,
   **   ~~~   ** Supply-to-demand interface deck 1 mass flow rate check value iteration history trace: 6.406453E-002,6.406453E-002,6.406453E-002,6.406453E-002,6.406453E-002,6.406453E-002,6.406453E-002,6.406453E-002,6.406453E-002,6.406453E-002,
   **   ~~~   ** Air System Named = CENTRAL SYSTEM did not converge for energy
   **   ~~~   ** Check values should be zero. Most Recent values listed first.
   **   ~~~   ** Demand-to-Supply interface energy check value iteration history trace: 1269.646728,1269.646728,1269.646728,1269.646728,1269.646728,1269.646728,1269.646728,1269.646728,1269.646728,1269.646728,
   **   ~~~   ** Supply-to-demand interface deck 1 energy check value iteration history trace: 2066.140482,2066.140482,2066.140482,2066.140482,2066.140482,2066.140482,2066.140482,2066.140482,2066.140481,2066.140481,
   ** Warning ** SimHVAC: Maximum iterations (20) exceeded for all HVAC loops, at EXTREME_SUMMER, 07/23 02:30 - 02:45
   **   ~~~   ** The solution for one or more of the Air Loop HVAC systems did not appear to converge
   **   ~~~   ** Air System Named = CENTRAL SYSTEM did not converge for mass flow rate
   **   ~~~   ** Check values should be zero. Most Recent values listed first.
   **   ~~~   ** Demand-to-Supply interface mass flow rate check value iteration history trace: 4.646635E-002,4.646635E-002,4.646635E-002,4.646635E-002,4.646635E-002,4.646635E-002,4.646635E-002,4.646635E-002,4.646635E-002,4.646635E-002,
   **   ~~~   ** Supply-to-demand interface deck 1 mass flow rate check value iteration history trace: 4.646635E-002,4.646635E-002,4.646635E-002,4.646635E-002,4.646635E-002,4.646635E-002,4.646635E-002,4.646635E-002,4.646635E-002,4.646635E-002,
   **   ~~~   ** Air System Named = CENTRAL SYSTEM did not converge for energy
   **   ~~~   ** Check values should be zero. Most Recent values listed first.
   **   ~~~   ** Demand-to-Supply interface energy check value iteration history trace: 1136.618491,1136.618491,1136.618492,1136.618492,1136.618492,1136.618492,1136.618493,1136.618493,1136.618493,1136.618494,
   **   ~~~   ** Supply-to-demand interface deck 1 energy check value iteration history trace: 523.083094,523.083094,523.083094,523.083094,523.083094,523.083094,523.083095,523.083095,523.083095,523.083095,
   ** Warning ** SimHVAC: Maximum iterations (20) exceeded for all HVAC loops, at EXTREME_SUMMER, 07/24 01:45 - 02:00
   **   ~~~   ** The solution for one or more of the Air Loop HVAC systems did not appear to converge
   **   ~~~   ** Air System Named = CENTRAL SYSTEM did not converge for mass flow rate
   **   ~~~   ** Check values should be zero. Most Recent values listed first.
   **   ~~~   ** Demand-to-Supply interface mass flow rate check value iteration history trace: 9.963788E-002,9.963788E-002,9.963788E-002,9.963788E-002,9.963788E-002,9.963788E-002,9.963788E-002,9.963788E-002,9.963788E-002,9.963788E-002,
   **   ~~~   ** Supply-to-demand interface deck 1 mass flow rate check value iteration history trace: 9.963788E-002,9.963788E-002,9.963788E-002,9.963788E-002,9.963788E-002,9.963788E-002,9.963788E-002,9.963788E-002,9.963788E-002,9.963788E-002,
   **   ~~~   ** Air System Named = CENTRAL SYSTEM did not converge for energy
   **   ~~~   ** Check values should be zero. Most Recent values listed first.
   **   ~~~   ** Demand-to-Supply interface energy check value iteration history trace: 2522.440411,2522.440412,2522.440412,2522.440413,2522.440413,2522.440414,2522.440414,2522.440415,2522.440415,2522.440416,
   **   ~~~   ** Supply-to-demand interface deck 1 energy check value iteration history trace: 1010.073827,1010.073828,1010.073828,1010.073828,1010.073828,1010.073828,1010.073829,1010.073829,1010.073829,1010.073829,
   ** Warning ** SimHVAC: Maximum iterations (20) exceeded for all HVAC loops, at ANNUAL, 01/06 05:38 - 05:45
   **   ~~~   ** The solution for one or more of the Air Loop HVAC systems did not appear to converge
   **   ~~~   ** Air System Named = CENTRAL SYSTEM did not converge for mass flow rate
   **   ~~~   ** Check values should be zero. Most Recent values listed first.
   **   ~~~   ** Demand-to-Supply interface mass flow rate check value iteration history trace: 1.421740E-002,1.421740E-002,1.421740E-002,1.421740E-002,1.421740E-002,1.421740E-002,1.421740E-002,1.421740E-002,1.421740E-002,1.421740E-002,
   **   ~~~   ** Supply-to-demand interface deck 1 mass flow rate check value iteration history trace: 1.421740E-002,1.421740E-002,1.421740E-002,1.421740E-002,1.421740E-002,1.421740E-002,1.421740E-002,1.421740E-002,1.421740E-002,1.421740E-002,
   **   ~~~   ** Air System Named = CENTRAL SYSTEM did not converge for energy
   **   ~~~   ** Check values should be zero. Most Recent values listed first.
   **   ~~~   ** Demand-to-Supply interface energy check value iteration history trace: 281.708962,281.708962,281.708962,281.708962,281.708962,281.708962,281.708962,281.708962,281.708962,281.708962,
   **   ~~~   ** Supply-to-demand interface deck 1 energy check value iteration history trace: 522.105136,522.105136,522.105136,522.105136,522.105136,522.105136,522.105136,522.105136,522.105136,522.105136,
   ** Warning ** SimHVAC: Maximum iterations (20) exceeded for all HVAC loops, at ANNUAL, 01/15 09:00 - 09:03
   **   ~~~   ** The solution for one or more of the Air Loop HVAC systems did not appear to converge
   **   ~~~   ** Air System Named = CENTRAL SYSTEM did not converge for mass flow rate
   **   ~~~   ** Check values should be zero. Most Recent values listed first.
   **   ~~~   ** Demand-to-Supply interface mass flow rate check value iteration history trace: 4.853094E-002,4.853094E-002,4.853094E-002,4.853094E-002,4.853094E-002,4.853094E-002,4.853094E-002,4.853094E-002,4.853094E-002,4.853094E-002,
   **   ~~~   ** Supply-to-demand interface deck 1 mass flow rate check value iteration history trace: 4.853094E-002,4.853094E-002,4.853094E-002,4.853094E-002,4.853094E-002,4.853094E-002,4.853094E-002,4.853094E-002,4.853094E-002,4.853094E-002,
   **   ~~~   ** Air System Named = CENTRAL SYSTEM did not converge for energy
   **   ~~~   ** Check values should be zero. Most Recent values listed first.
   **   ~~~   ** Demand-to-Supply interface energy check value iteration history trace: 961.706947,961.706947,961.706947,961.706947,961.706947,961.706947,961.706947,961.706947,961.706947,961.706947,
   **   ~~~   ** Supply-to-demand interface deck 1 energy check value iteration history trace: 1595.590462,1595.590462,1595.590462,1595.590462,1595.590462,1595.590462,1595.590462,1595.590461,1595.590461,1595.590461,
   ** Warning ** SimHVAC: Maximum iterations (20) exceeded for all HVAC loops, at ANNUAL, 01/15 09:15 - 09:17
   **   ~~~   ** The solution for one or more of the Air Loop HVAC systems did not appear to converge
   **   ~~~   ** Air System Named = CENTRAL SYSTEM did not converge for mass flow rate
   **   ~~~   ** Check values should be zero. Most Recent values listed first.
   **   ~~~   ** Demand-to-Supply interface mass flow rate check value iteration history trace: 1.746934E-002,1.746934E-002,1.746934E-002,1.746934E-002,1.746934E-002,1.746934E-002,1.746934E-002,1.746934E-002,1.746934E-002,1.746934E-002,
   **   ~~~   ** Supply-to-demand interface deck 1 mass flow rate check value iteration history trace: 1.746934E-002,1.746934E-002,1.746934E-002,1.746934E-002,1.746934E-002,1.746934E-002,1.746934E-002,1.746934E-002,1.746934E-002,1.746934E-002,
   **   ~~~   ** Air System Named = CENTRAL SYSTEM did not converge for energy
   **   ~~~   ** Check values should be zero. Most Recent values listed first.
   **   ~~~   ** Demand-to-Supply interface energy check value iteration history trace: 345.323729,345.323729,345.323729,345.323729,345.323729,345.323729,345.323729,345.323729,345.323729,345.323729,
   **   ~~~   ** Supply-to-demand interface deck 1 energy check value iteration history trace: 573.590836,573.590836,573.590836,573.590836,573.590836,573.590836,573.590836,573.590835,573.590835,573.590835,
   ** Warning ** SimHVAC: Maximum iterations (20) exceeded for all HVAC loops, at ANNUAL, 02/11 09:43 - 09:45
   **   ~~~   ** The solution for one or more of the Air Loop HVAC systems did not appear to converge
   **   ~~~   ** Air System Named = CENTRAL SYSTEM did not converge for mass flow rate
   **   ~~~   ** Check values should be zero. Most Recent values listed first.
   **   ~~~   ** Demand-to-Supply interface mass flow rate check value iteration history trace: 5.174264E-002,5.174264E-002,5.174264E-002,5.174264E-002,5.174264E-002,5.174264E-002,5.174264E-002,5.174264E-002,5.174264E-002,5.174264E-002,
   **   ~~~   ** Supply-to-demand interface deck 1 mass flow rate check value iteration history trace: 5.174264E-002,5.174264E-002,5.174264E-002,5.174264E-002,5.174264E-002,5.174264E-002,5.174264E-002,5.174264E-002,5.174264E-002,5.174264E-002,
   **   ~~~   ** Air System Named = CENTRAL SYSTEM did not converge for energy
   **   ~~~   ** Check values should be zero. Most Recent values listed first.
   **   ~~~   ** Demand-to-Supply interface energy check value iteration history trace: 1024.837108,1024.837108,1024.837108,1024.837108,1024.837108,1024.837108,1024.837107,1024.837107,1024.837107,1024.837107,
   **   ~~~   ** Supply-to-demand interface deck 1 energy check value iteration history trace: 1963.393149,1963.393149,1963.393149,1963.393149,1963.393149,1963.393149,1963.393149,1963.393149,1963.393149,1963.393149,
   ** Warning ** SimHVAC: Maximum iterations (20) exceeded for all HVAC loops, at ANNUAL, 02/15 09:18 - 09:20
   **   ~~~   ** The solution for one or more of the Air Loop HVAC systems did not appear to converge
   **   ~~~   ** Air System Named = CENTRAL SYSTEM did not converge for mass flow rate
   **   ~~~   ** Check values should be zero. Most Recent values listed first.
   **   ~~~   ** Demand-to-Supply interface mass flow rate check value iteration history trace: 7.397315E-002,7.397315E-002,7.397315E-002,7.397315E-002,7.397315E-002,7.397315E-002,7.397315E-002,7.397315E-002,7.397315E-002,7.397315E-002,
   **   ~~~   ** Supply-to-demand interface deck 1 mass flow rate check value iteration history trace: 7.397315E-002,7.397315E-002,7.397315E-002,7.397315E-002,7.397315E-002,7.397315E-002,7.397315E-002,7.397315E-002,7.397315E-002,7.397315E-002,
   **   ~~~   ** Air System Named = CENTRAL SYSTEM did not converge for energy
   **   ~~~   ** Check values should be zero. Most Recent values listed first.
   **   ~~~   ** Demand-to-Supply interface energy check value iteration history trace: 1464.215513,1464.215513,1464.215513,1464.215513,1464.215513,1464.215513,1464.215513,1464.215513,1464.215513,1464.215513,
   **   ~~~   ** Supply-to-demand interface deck 1 energy check value iteration history trace: 2394.631273,2394.631272,2394.631272,2394.631272,2394.631272,2394.631272,2394.631272,2394.631272,2394.631272,2394.631272,
   ** Warning ** SimHVAC: Maximum iterations (20) exceeded for all HVAC loops, at ANNUAL, 03/11 09:54 - 09:57
   **   ~~~   ** The solution for one or more of the Air Loop HVAC systems did not appear to converge
   **   ~~~   ** Air System Named = CENTRAL SYSTEM did not converge for mass flow rate
   **   ~~~   ** Check values should be zero. Most Recent values listed first.
   **   ~~~   ** Demand-to-Supply interface mass flow rate check value iteration history trace: 5.446374E-002,5.446374E-002,5.446374E-002,5.446374E-002,5.446374E-002,5.446374E-002,5.446374E-002,5.446374E-002,5.446374E-002,5.446374E-002,
   **   ~~~   ** Supply-to-demand interface deck 1 mass flow rate check value iteration history trace: 5.446374E-002,5.446374E-002,5.446374E-002,5.446374E-002,5.446374E-002,5.446374E-002,5.446374E-002,5.446374E-002,5.446374E-002,5.446374E-002,
   **   ~~~   ** Air System Named = CENTRAL SYSTEM did not converge for energy
   **   ~~~   ** Check values should be zero. Most Recent values listed first.
   **   ~~~   ** Demand-to-Supply interface energy check value iteration history trace: 1077.558088,1077.558088,1077.558088,1077.558088,1077.558088,1077.558088,1077.558088,1077.558088,1077.558088,1077.558088,
   **   ~~~   ** Supply-to-demand interface deck 1 energy check value iteration history trace: 2056.328978,2056.328978,2056.328978,2056.328978,2056.328978,2056.328978,2056.328978,2056.328978,2056.328978,2056.328978,
   ** Warning ** SimHVAC: Maximum iterations (20) exceeded for all HVAC loops, at ANNUAL, 03/14 03:20 - 03:25
   **   ~~~   ** The solution for one or more of the Air Loop HVAC systems did not appear to converge
   **   ~~~   ** Air System Named = CENTRAL SYSTEM did not converge for mass flow rate
   **   ~~~   ** Check values should be zero. Most Recent values listed first.
   **   ~~~   ** Demand-to-Supply interface mass flow rate check value iteration history trace: 7.546928E-002,7.546928E-002,7.546928E-002,7.546928E-002,7.546928E-002,7.546928E-002,7.546928E-002,7.546928E-002,7.546928E-002,7.546928E-002,
   **   ~~~   ** Supply-to-demand interface deck 1 mass flow rate check value iteration history trace: 7.546928E-002,7.546928E-002,7.546928E-002,7.546928E-002,7.546928E-002,7.546928E-002,7.546928E-002,7.546928E-002,7.546928E-002,7.546928E-002,
   **   ~~~   ** Air System Named = CENTRAL SYSTEM did not converge for energy
   **   ~~~   ** Check values should be zero. Most Recent values listed first.
   **   ~~~   ** Demand-to-Supply interface energy check value iteration history trace: 1426.447150,1426.447150,1426.447150,1426.447150,1426.447150,1426.447150,1426.447149,1426.447149,1426.447149,1426.447149,
   **   ~~~   ** Supply-to-demand interface deck 1 energy check value iteration history trace: 2263.143287,2263.143286,2263.143286,2263.143286,2263.143286,2263.143286,2263.143286,2263.143286,2263.143286,2263.143286,
   ** Warning ** Temperature out of range [-100. to 200.] (PsyPsatFnTemp)
   **   ~~~   **  Routine=PsyTwbFnTdbWPb, Environment=ANNUAL, at Simulation time=03/24 15:24 - 15:26
   **   ~~~   **  Input Temperature=-146.61
   ** Warning ** SimHVAC: Maximum iterations (20) exceeded for all HVAC loops, at ANNUAL, 03/29 08:59 - 09:00
   **   ~~~   ** The solution for one or more of the Air Loop HVAC systems did not appear to converge
   **   ~~~   ** Air System Named = CENTRAL SYSTEM did not converge for mass flow rate
   **   ~~~   ** Check values should be zero. Most Recent values listed first.
   **   ~~~   ** Demand-to-Supply interface mass flow rate check value iteration history trace: 4.717972E-002,4.717972E-002,4.717972E-002,4.717972E-002,4.717972E-002,4.717972E-002,4.717972E-002,4.717972E-002,4.717972E-002,4.717972E-002,
   **   ~~~   ** Supply-to-demand interface deck 1 mass flow rate check value iteration history trace: 4.717972E-002,4.717972E-002,4.717972E-002,4.717972E-002,4.717972E-002,4.717972E-002,4.717972E-002,4.717972E-002,4.717972E-002,4.717972E-002,
   **   ~~~   ** Air System Named = CENTRAL SYSTEM did not converge for energy
   **   ~~~   ** Check values should be zero. Most Recent values listed first.
   **   ~~~   ** Demand-to-Supply interface energy check value iteration history trace: 931.799090,931.799090,931.799090,931.799090,931.799090,931.799090,931.799090,931.799090,931.799090,931.799090,
   **   ~~~   ** Supply-to-demand interface deck 1 energy check value iteration history trace: 1745.467680,1745.467680,1745.467680,1745.467680,1745.467680,1745.467680,1745.467679,1745.467679,1745.467679,1745.467679,
   ** Warning ** SimHVAC: Maximum iterations (20) exceeded for all HVAC loops, at ANNUAL, 04/04 03:25 - 03:30
   **   ~~~   ** The solution for one or more of the Air Loop HVAC systems did not appear to converge
   **   ~~~   ** Air System Named = CENTRAL SYSTEM did not converge for mass flow rate
   **   ~~~   ** Check values should be zero. Most Recent values listed first.
   **   ~~~   ** Demand-to-Supply interface mass flow rate check value iteration history trace: 5.197721E-002,5.197721E-002,5.197721E-002,5.197721E-002,5.197721E-002,5.197721E-002,5.197721E-002,5.197721E-002,5.197721E-002,5.197721E-002,
   **   ~~~   ** Supply-to-demand interface deck 1 mass flow rate check value iteration history trace: 5.197721E-002,5.197721E-002,5.197721E-002,5.197721E-002,5.197721E-002,5.197721E-002,5.197721E-002,5.197721E-002,5.197721E-002,5.197721E-002,
   **   ~~~   ** Air System Named = CENTRAL SYSTEM did not converge for energy
   **   ~~~   ** Check values should be zero. Most Recent values listed first.
   **   ~~~   ** Demand-to-Supply interface energy check value iteration history trace: 973.652241,973.652241,973.652241,973.652241,973.652241,973.652241,973.652241,973.652241,973.652241,973.652241,
   **   ~~~   ** Supply-to-demand interface deck 1 energy check value iteration history trace: 1639.262815,1639.262815,1639.262814,1639.262814,1639.262814,1639.262814,1639.262814,1639.262814,1639.262814,1639.262814,
   ** Warning ** SimHVAC: Maximum iterations (20) exceeded for all HVAC loops, at ANNUAL, 04/28 09:55 - 09:57
   **   ~~~   ** The solution for one or more of the Air Loop HVAC systems did not appear to converge
   **   ~~~   ** Air System Named = CENTRAL SYSTEM did not converge for mass flow rate
   **   ~~~   ** Check values should be zero. Most Recent values listed first.
   **   ~~~   ** Demand-to-Supply interface mass flow rate check value iteration history trace: 0.261843,0.261843,0.261843,0.261843,0.261843,0.261843,0.261843,0.261843,0.261843,0.261843,
   **   ~~~   ** Supply-to-demand interface deck 1 mass flow rate check value iteration history trace: 0.261843,0.261843,0.261843,0.261843,0.261843,0.261843,0.261843,0.261843,0.261843,0.261843,
   **   ~~~   ** Air System Named = CENTRAL SYSTEM did not converge for energy
   **   ~~~   ** Check values should be zero. Most Recent values listed first.
   **   ~~~   ** Demand-to-Supply interface energy check value iteration history trace: 6252.787182,6252.787183,6252.787183,6252.787184,6252.787184,6252.787185,6252.787186,6252.787186,6252.787187,6252.787188,
   **   ~~~   ** Supply-to-demand interface deck 1 energy check value iteration history trace: 1921.638056,1921.638056,1921.638057,1921.638057,1921.638057,1921.638057,1921.638057,1921.638058,1921.638058,1921.638058,
   ** Warning ** SimHVAC: Maximum iterations (20) exceeded for all HVAC loops, at ANNUAL, 05/01 08:57 - 09:00
   **   ~~~   ** The solution for one or more of the Air Loop HVAC systems did not appear to converge
   **   ~~~   ** Air System Named = CENTRAL SYSTEM did not converge for mass flow rate
   **   ~~~   ** Check values should be zero. Most Recent values listed first.
   **   ~~~   ** Demand-to-Supply interface mass flow rate check value iteration history trace: 0.189737,0.189737,0.189737,0.189737,0.189737,0.189737,0.189737,0.189737,0.189737,0.189737,
   **   ~~~   ** Supply-to-demand interface deck 1 mass flow rate check value iteration history trace: 0.189737,0.189737,0.189737,0.189737,0.189737,0.189737,0.189737,0.189737,0.189737,0.189737,
   **   ~~~   ** Air System Named = CENTRAL SYSTEM did not converge for energy
   **   ~~~   ** Check values should be zero. Most Recent values listed first.
   **   ~~~   ** Demand-to-Supply interface energy check value iteration history trace: 4529.583317,4529.583317,4529.583318,4529.583318,4529.583319,4529.583320,4529.583320,4529.583321,4529.583321,4529.583322,
   **   ~~~   ** Supply-to-demand interface deck 1 energy check value iteration history trace: 1434.617576,1434.617576,1434.617576,1434.617576,1434.617577,1434.617577,1434.617577,1434.617577,1434.617577,1434.617577,
   ************* Simulation Error Summary *************
   ** Warning ** The following Report Variables were requested but not generated -- check.rdd file
   **   ~~~   ** Either the IDF did not contain these elements, the variable name is misspelled,
   **   ~~~   ** or the requested variable is an advanced output which requires Output : Diagnostics, DisplayAdvancedReportVariables;
   ************* Key=*, VarName=BASEBOARD TOTAL HEATING ENERGY, Frequency=
   ************* Key=*, VarName=WATER HEATER NATURALGAS ENERGY, Frequency=
   ************* Key=*, VarName=COOLING COIL TOTAL HEATING ENERGY, Frequency=
   ************* There are 34 unused schedules in input.
   ************* There are 388 unused week schedules in input.
   ************* There are 396 unused day schedules in input.
   ************* Use Output:Diagnostics,DisplayUnusedSchedules; to see them.
   *************
   ************* ===== Recurring Error Summary =====
   ************* The following recurring error messages occurred.
   *************
   *************  ** Warning ** "TOTAL HOT WATER LOAD" - Target water temperature should be less than or equal to the hot water temperature error continues...
   *************  **   ~~~   **   This error occurred 77711 total times;
   *************  **   ~~~   **   during Warmup 0 times;
   *************  **   ~~~   **   during Sizing 0 times.
   *************  **   ~~~   **   Max=6.434521  Min=9.484772E-004
   *************
   *************  ** Warning ** Temperature out of range [-100. to 200.] (PsyPsatFnTemp)
   *************  **   ~~~   **   This error occurred 19 total times;
   *************  **   ~~~   **   during Warmup 0 times;
   *************  **   ~~~   **   during Sizing 0 times.
   *************  **   ~~~   **   Max=-145.518135 C  Min=-1304.239624 C
   *************
   *************  ** Warning ** SimHVAC: Exceeding Maximum iterations for all HVAC loops, during ANNUAL continues
   *************  **   ~~~   **   This error occurred 4 total times;
   *************  **   ~~~   **   during Warmup 0 times;
   *************  **   ~~~   **   during Sizing 0 times.
   *************
   *************
   ************* ===== Final Error Summary =====
   ************* The following error categories occurred.  Consider correcting or noting.
   ************* Nominally Unused Constructions
   ************* ..The nominally unused constructions warning is provided to alert you to potential conditions that can cause
   ************* ..extra time during simulation. Each construction is calculated by the algorithm indicated in the HeatBalanceAlgorithm
   ************* ..object. You may remove the constructions indicated (when you use the DisplayExtraWarnings option).
   *************
   ************* EnergyPlus Warmup Error Summary. During Warmup: 1 Warning; 0 Severe Errors.
   ************* EnergyPlus Sizing Error Summary. During Sizing: 4 Warning; 0 Severe Errors.
   ************* EnergyPlus Completed Successfully-- 77766 Warning; 0 Severe Errors; Elapsed Time=00hr 01min 54.63sec
