Program Version,EnergyPlus, Version 22.2.0-c249759bad, YMD=2023.09.01 19:16,
   ************* Beginning Zone Sizing Calculations
   ** Warning ** ProcessScheduleInput: Schedule:Constant="ALWAYS ON DISCRETE", Schedule Type Limits Name="ONOFF" not found -- will not be validated
   ** Warning ** Foundation:Kiva="KIVA FOUNDATION", no Interior Horizontal Insulation Material Name defined
   **   ~~~   ** Interior Horizontal Insulation Depth will not be used.
   ** Warning ** CheckUsedConstructions: There are 15 nominally unused constructions in input.
   **   ~~~   ** Each Unused construction is shown.
   ************* Construction=INTERIOR FLOOR
   ************* Construction=INTERIOR WINDOW
   ************* Construction=EXTERIOR DOOR
   ************* Construction=INTERIOR DOOR
   ************* Construction=GABLE CONSTRUCTION
   ************* Construction=CRAWL_FLOOR
   ************* Construction=INSULATED PIPE
   ************* Construction=PLAIN PIPE
   ************* Construction=TDD PIPE
   ************* Construction=TDD DOME
   ************* Construction=TDD DIFFUSER
   ************* Construction=CRAWL WALL
   ************* Construction=CEILING-FLOOR-LAYER
   ************* Construction=SLAB CONSTRUCTION W FULL R10 INSULATION
   ************* Construction=SLAB CONSTRUCTION W FULL R5 INSULATION
   ** Warning ** GetDXCoils: Coil:Heating:DX:SingleSpeed="DX_HEATING_COIL" curve values
   **   ~~~   ** ... Defrost Energy Input Ratio Function of Temperature Curve Name = DEFROSTEIR output is not equal to 1.0 (+ or - 10%) at rated conditions.
   **   ~~~   ** ... Curve output at rated conditions = 0.152
   ************* Beginning System Sizing Calculations
   ************* Beginning Plant Sizing Calculations
   ** Warning ** SizeDXCoil Coil:Cooling:DX:SingleSpeed DX_COOLING_COIL
   **   ~~~   ** ...Gross Rated Total Cooling Capacity [W] will be limited by the maximum rated volume flow per rated total capacity ratio.
   **   ~~~   ** ...DX coil volume flow rate ( m3/s ) = 0.541743
   **   ~~~   ** ...Requested capacity ( W ) = 7230.034
   **   ~~~   ** ...Requested flow/capacity ratio ( m3/s/W ) = 7.492E-005
   **   ~~~   ** ...Maximum flow/capacity ratio ( m3/s/W ) = 6.041E-005
   **   ~~~   ** ...Adjusted capacity ( W ) = 8967.770
   ** Warning ** Coil:WaterHeating:AirToWaterHeatPump:Wrapped "HEAT PUMP WATER HEATER EVAPORATOR": Rated air volume flow rate per watt of rated total water heating capacity is out of range
   **   ~~~   ** Min Rated Vol Flow Per Watt=[4.027E-005], Rated Vol Flow Per Watt=[1.510E-004], Max Rated Vol Flow Per Watt=[8.056E-005]. See Input-Output Reference Manual for valid range.
   ************* SizeFan: : Potential issue with equipment sizing for Fan:OnOff HEAT PUMP WATER HEATER FAN
   **   ~~~   ** User-Specified Maximum Flow Rate [m3/s] = 0.22653
   **   ~~~   ** differs from Design Size Maximum Flow Rate [m3/s] = 7.55250E-002
   **   ~~~   ** This may, or may not, indicate mismatched component sizes.
   **   ~~~   ** Verify that the value entered is intended and is consistent with other components.
   ** Warning ** Water heater = WATER HEATER TANK:  Recovery Efficiency and Energy Factor could not be calculated during the test for standard ratings
   **   ~~~   ** Setpoint was never recovered and/or heater never turned on
   ** Warning ** Check input. Pump nominal power or motor efficiency is set to 0, for pump=MAINS PRESSURE
   ** Warning ** Output:Meter: invalid Key Name="ELECTRIC_RANGE:INTERIOREQUIPMENT:ELECTRICITY" - not found.
   ** Warning ** Output:Meter: invalid Key Name="ELECTRIC_DRYER:INTERIOREQUIPMENT:ELECTRICITY" - not found.
   ** Warning ** Output:Meter: invalid Key Name="HEATRECOVERY:ELECTRICITY" - not found.
   ** Warning ** Output:Meter: invalid Key Name="HEATING:NATURALGAS" - not found.
   ** Warning ** Output:Meter: invalid Key Name="WATERSYSTEMS:NATURALGAS" - not found.
   ** Warning ** Output:Meter: invalid Key Name="PROPANE:FACILITY" - not found.
   ** Warning ** Output:Meter: invalid Key Name="HEATING:PROPANE" - not found.
   ************* Testing Individual Branch Integrity
   ************* All Branches passed integrity testing
   ************* Testing Individual Supply Air Path Integrity
   ************* All Supply Air Paths passed integrity testing
   ************* Testing Individual Return Air Path Integrity
   ************* All Return Air Paths passed integrity testing
   ************* No node connection errors were found.
   ************* Beginning Simulation
   ** Warning ** AirflowNetwork::Solver::validate_distribution: Heat pump water heater is simulated along with an AirflowNetwork but is not included in the AirflowNetwork.
   ** Warning ** CalcEquipmentFlowRates: "TOTAL HOT WATER LOAD" - Target water temperature is greater than the hot water temperature by (1.78 C)
   **   ~~~   **  Environment=EXTREME_WINTER, at Simulation time=12/22 06:45 - 07:00
   **   ~~~   ** ...target water temperature     = 53.33 C
   **   ~~~   ** ...hot water temperature        = 51.56 C
   **   ~~~   ** ...Target water temperature should be less than or equal to the hot water temperature. Verify temperature setpoints and schedules.
   ** Warning ** SimHVAC: Maximum iterations (20) exceeded for all HVAC loops, at EXTREME_WINTER, 12/28 13:45 - 14:00
   **   ~~~   ** The solution for one or more of the Air Loop HVAC systems did not appear to converge
   **   ~~~   ** Air System Named = CENTRAL SYSTEM did not converge for mass flow rate
   **   ~~~   ** Check values should be zero. Most Recent values listed first.
   **   ~~~   ** Demand-to-Supply interface mass flow rate check value iteration history trace: 6.966253E-002,6.966253E-002,6.966253E-002,6.966253E-002,6.966253E-002,6.966253E-002,6.966253E-002,6.966253E-002,6.966253E-002,6.966253E-002,
   **   ~~~   ** Supply-to-demand interface deck 1 mass flow rate check value iteration history trace: 6.966253E-002,6.966253E-002,6.966253E-002,6.966253E-002,6.966253E-002,6.966253E-002,6.966253E-002,6.966253E-002,6.966253E-002,6.966253E-002,
   **   ~~~   ** Air System Named = CENTRAL SYSTEM did not converge for energy
   **   ~~~   ** Check values should be zero. Most Recent values listed first.
   **   ~~~   ** Demand-to-Supply interface energy check value iteration history trace: 1377.072464,1377.072464,1377.072464,1377.072464,1377.072464,1377.072464,1377.072463,1377.072463,1377.072463,1377.072463,
   **   ~~~   ** Supply-to-demand interface deck 1 energy check value iteration history trace: 2281.824654,2281.824654,2281.824654,2281.824654,2281.824653,2281.824653,2281.824653,2281.824653,2281.824653,2281.824653,
   ** Warning ** SimHVAC: Maximum iterations (20) exceeded for all HVAC loops, at ANNUAL, 01/11 11:15 - 11:17
   **   ~~~   ** The solution for one or more of the Air Loop HVAC systems did not appear to converge
   **   ~~~   ** Air System Named = CENTRAL SYSTEM did not converge for mass flow rate
   **   ~~~   ** Check values should be zero. Most Recent values listed first.
   **   ~~~   ** Demand-to-Supply interface mass flow rate check value iteration history trace: 7.088112E-002,7.088112E-002,7.088112E-002,7.088112E-002,7.088112E-002,7.088112E-002,7.088112E-002,7.088112E-002,7.088112E-002,7.088112E-002,
   **   ~~~   ** Supply-to-demand interface deck 1 mass flow rate check value iteration history trace: 7.088112E-002,7.088112E-002,7.088112E-002,7.088112E-002,7.088112E-002,7.088112E-002,7.088112E-002,7.088112E-002,7.088112E-002,7.088112E-002,
   **   ~~~   ** Air System Named = CENTRAL SYSTEM did not converge for energy
   **   ~~~   ** Check values should be zero. Most Recent values listed first.
   **   ~~~   ** Demand-to-Supply interface energy check value iteration history trace: 1404.667104,1404.667104,1404.667104,1404.667104,1404.667104,1404.667104,1404.667104,1404.667104,1404.667104,1404.667104,
   **   ~~~   ** Supply-to-demand interface deck 1 energy check value iteration history trace: 2223.827980,2223.827979,2223.827979,2223.827979,2223.827979,2223.827979,2223.827979,2223.827979,2223.827979,2223.827979,
   ** Warning ** SimHVAC: Maximum iterations (20) exceeded for all HVAC loops, at ANNUAL, 01/27 13:30 - 13:45
   **   ~~~   ** The solution for one or more of the Air Loop HVAC systems did not appear to converge
   **   ~~~   ** Air System Named = CENTRAL SYSTEM did not converge for mass flow rate
   **   ~~~   ** Check values should be zero. Most Recent values listed first.
   **   ~~~   ** Demand-to-Supply interface mass flow rate check value iteration history trace: 5.445065E-002,5.445065E-002,5.445065E-002,5.445065E-002,5.445065E-002,5.445065E-002,5.445065E-002,5.445065E-002,5.445065E-002,5.445065E-002,
   **   ~~~   ** Supply-to-demand interface deck 1 mass flow rate check value iteration history trace: 5.445065E-002,5.445065E-002,5.445065E-002,5.445065E-002,5.445065E-002,5.445065E-002,5.445065E-002,5.445065E-002,5.445065E-002,5.445065E-002,
   **   ~~~   ** Air System Named = CENTRAL SYSTEM did not converge for energy
   **   ~~~   ** Check values should be zero. Most Recent values listed first.
   **   ~~~   ** Demand-to-Supply interface energy check value iteration history trace: 1079.102836,1079.102835,1079.102835,1079.102835,1079.102835,1079.102835,1079.102835,1079.102835,1079.102835,1079.102835,
   **   ~~~   ** Supply-to-demand interface deck 1 energy check value iteration history trace: 1955.697507,1955.697507,1955.697507,1955.697507,1955.697507,1955.697507,1955.697507,1955.697507,1955.697507,1955.697507,
   ** Warning ** SimHVAC: Maximum iterations (20) exceeded for all HVAC loops, at ANNUAL, 01/29 10:00 - 10:02
   **   ~~~   ** The solution for one or more of the Air Loop HVAC systems did not appear to converge
   **   ~~~   ** Air System Named = CENTRAL SYSTEM did not converge for mass flow rate
   **   ~~~   ** Check values should be zero. Most Recent values listed first.
   **   ~~~   ** Demand-to-Supply interface mass flow rate check value iteration history trace: 8.082004E-002,8.082004E-002,8.082004E-002,8.082004E-002,8.082004E-002,8.082004E-002,8.082004E-002,8.082004E-002,8.082004E-002,8.082004E-002,
   **   ~~~   ** Supply-to-demand interface deck 1 mass flow rate check value iteration history trace: 8.082004E-002,8.082004E-002,8.082004E-002,8.082004E-002,8.082004E-002,8.082004E-002,8.082004E-002,8.082004E-002,8.082004E-002,8.082004E-002,
   **   ~~~   ** Air System Named = CENTRAL SYSTEM did not converge for energy
   **   ~~~   ** Check values should be zero. Most Recent values listed first.
   **   ~~~   ** Demand-to-Supply interface energy check value iteration history trace: 1601.581254,1601.581254,1601.581254,1601.581254,1601.581254,1601.581254,1601.581254,1601.581254,1601.581254,1601.581254,
   **   ~~~   ** Supply-to-demand interface deck 1 energy check value iteration history trace: 2495.029339,2495.029339,2495.029339,2495.029339,2495.029339,2495.029339,2495.029339,2495.029338,2495.029338,2495.029338,
   ** Warning ** SimHVAC: Maximum iterations (20) exceeded for all HVAC loops, at ANNUAL, 02/01 11:28 - 11:30
   **   ~~~   ** The solution for one or more of the Air Loop HVAC systems did not appear to converge
   **   ~~~   ** Air System Named = CENTRAL SYSTEM did not converge for mass flow rate
   **   ~~~   ** Check values should be zero. Most Recent values listed first.
   **   ~~~   ** Demand-to-Supply interface mass flow rate check value iteration history trace: 5.940863E-002,5.940863E-002,5.940863E-002,5.940863E-002,5.940863E-002,5.940863E-002,5.940863E-002,5.940863E-002,5.940863E-002,5.940863E-002,
   **   ~~~   ** Supply-to-demand interface deck 1 mass flow rate check value iteration history trace: 5.940863E-002,5.940863E-002,5.940863E-002,5.940863E-002,5.940863E-002,5.940863E-002,5.940863E-002,5.940863E-002,5.940863E-002,5.940863E-002,
   **   ~~~   ** Air System Named = CENTRAL SYSTEM did not converge for energy
   **   ~~~   ** Check values should be zero. Most Recent values listed first.
   **   ~~~   ** Demand-to-Supply interface energy check value iteration history trace: 1174.566331,1174.566331,1174.566331,1174.566331,1174.566331,1174.566331,1174.566330,1174.566330,1174.566330,1174.566330,
   **   ~~~   ** Supply-to-demand interface deck 1 energy check value iteration history trace: 1924.557868,1924.557868,1924.557867,1924.557867,1924.557867,1924.557867,1924.557867,1924.557867,1924.557867,1924.557867,
   ** Warning ** SimHVAC: Maximum iterations (20) exceeded for all HVAC loops, at ANNUAL, 02/08 11:15 - 11:20
   **   ~~~   ** The solution for one or more of the Air Loop HVAC systems did not appear to converge
   **   ~~~   ** Air System Named = CENTRAL SYSTEM did not converge for mass flow rate
   **   ~~~   ** Check values should be zero. Most Recent values listed first.
   **   ~~~   ** Demand-to-Supply interface mass flow rate check value iteration history trace: 4.786108E-002,4.786108E-002,4.786108E-002,4.786108E-002,4.786108E-002,4.786108E-002,4.786108E-002,4.786108E-002,4.786108E-002,4.786108E-002,
   **   ~~~   ** Supply-to-demand interface deck 1 mass flow rate check value iteration history trace: 4.786108E-002,4.786108E-002,4.786108E-002,4.786108E-002,4.786108E-002,4.786108E-002,4.786108E-002,4.786108E-002,4.786108E-002,4.786108E-002,
   **   ~~~   ** Air System Named = CENTRAL SYSTEM did not converge for energy
   **   ~~~   ** Check values should be zero. Most Recent values listed first.
   **   ~~~   ** Demand-to-Supply interface energy check value iteration history trace: 941.704338,941.704338,941.704338,941.704338,941.704338,941.704338,941.704338,941.704338,941.704338,941.704338,
   **   ~~~   ** Supply-to-demand interface deck 1 energy check value iteration history trace: 1771.382341,1771.382341,1771.382341,1771.382341,1771.382341,1771.382341,1771.382341,1771.382341,1771.382341,1771.382341,
   ** Warning ** SimHVAC: Maximum iterations (20) exceeded for all HVAC loops, at ANNUAL, 02/18 13:45 - 13:52
   **   ~~~   ** The solution for one or more of the Air Loop HVAC systems did not appear to converge
   **   ~~~   ** Air System Named = CENTRAL SYSTEM did not converge for mass flow rate
   **   ~~~   ** Check values should be zero. Most Recent values listed first.
   **   ~~~   ** Demand-to-Supply interface mass flow rate check value iteration history trace: 4.346553E-002,4.346553E-002,4.346553E-002,4.346553E-002,4.346553E-002,4.346553E-002,4.346553E-002,4.346553E-002,4.346553E-002,4.346553E-002,
   **   ~~~   ** Supply-to-demand interface deck 1 mass flow rate check value iteration history trace: 4.346553E-002,4.346553E-002,4.346553E-002,4.346553E-002,4.346553E-002,4.346553E-002,4.346553E-002,4.346553E-002,4.346553E-002,4.346553E-002,
   **   ~~~   ** Air System Named = CENTRAL SYSTEM did not converge for energy
   **   ~~~   ** Check values should be zero. Most Recent values listed first.
   **   ~~~   ** Demand-to-Supply interface energy check value iteration history trace: 848.561354,848.561354,848.561354,848.561354,848.561354,848.561354,848.561354,848.561354,848.561354,848.561354,
   **   ~~~   ** Supply-to-demand interface deck 1 energy check value iteration history trace: 1652.140689,1652.140689,1652.140689,1652.140689,1652.140689,1652.140689,1652.140689,1652.140689,1652.140689,1652.140688,
   ** Warning ** SimHVAC: Maximum iterations (20) exceeded for all HVAC loops, at ANNUAL, 02/19 09:15 - 09:30
   **   ~~~   ** The solution for one or more of the Air Loop HVAC systems did not appear to converge
   **   ~~~   ** Air System Named = CENTRAL SYSTEM did not converge for mass flow rate
   **   ~~~   ** Check values should be zero. Most Recent values listed first.
   **   ~~~   ** Demand-to-Supply interface mass flow rate check value iteration history trace: 8.016228E-002,8.016228E-002,8.016228E-002,8.016228E-002,8.016228E-002,8.016228E-002,8.016228E-002,8.016228E-002,8.016228E-002,8.016228E-002,
   **   ~~~   ** Supply-to-demand interface deck 1 mass flow rate check value iteration history trace: 8.016228E-002,8.016228E-002,8.016228E-002,8.016228E-002,8.016228E-002,8.016228E-002,8.016228E-002,8.016228E-002,8.016228E-002,8.016228E-002,
   **   ~~~   ** Air System Named = CENTRAL SYSTEM did not converge for energy
   **   ~~~   ** Check values should be zero. Most Recent values listed first.
   **   ~~~   ** Demand-to-Supply interface energy check value iteration history trace: 1588.578012,1588.578012,1588.578012,1588.578012,1588.578012,1588.578012,1588.578012,1588.578012,1588.578012,1588.578012,
   **   ~~~   ** Supply-to-demand interface deck 1 energy check value iteration history trace: 2532.163775,2532.163775,2532.163775,2532.163775,2532.163775,2532.163775,2532.163774,2532.163774,2532.163774,2532.163774,
   ** Warning ** SimHVAC: Maximum iterations (20) exceeded for all HVAC loops, at ANNUAL, 03/04 18:00 - 18:15
   **   ~~~   ** The solution for one or more of the Air Loop HVAC systems did not appear to converge
   **   ~~~   ** Air System Named = CENTRAL SYSTEM did not converge for mass flow rate
   **   ~~~   ** Check values should be zero. Most Recent values listed first.
   **   ~~~   ** Demand-to-Supply interface mass flow rate check value iteration history trace: 5.582606E-002,5.582606E-002,5.582606E-002,5.582606E-002,5.582606E-002,5.582606E-002,5.582606E-002,5.582606E-002,5.582606E-002,5.582606E-002,
   **   ~~~   ** Supply-to-demand interface deck 1 mass flow rate check value iteration history trace: 5.582606E-002,5.582606E-002,5.582606E-002,5.582606E-002,5.582606E-002,5.582606E-002,5.582606E-002,5.582606E-002,5.582606E-002,5.582606E-002,
   **   ~~~   ** Air System Named = CENTRAL SYSTEM did not converge for energy
   **   ~~~   ** Check values should be zero. Most Recent values listed first.
   **   ~~~   ** Demand-to-Supply interface energy check value iteration history trace: 1106.567748,1106.567748,1106.567748,1106.567748,1106.567748,1106.567748,1106.567748,1106.567748,1106.567748,1106.567748,
   **   ~~~   ** Supply-to-demand interface deck 1 energy check value iteration history trace: 1963.754345,1963.754345,1963.754345,1963.754345,1963.754345,1963.754345,1963.754345,1963.754345,1963.754345,1963.754345,
   ** Warning ** SimHVAC: Maximum iterations (20) exceeded for all HVAC loops, at ANNUAL, 03/04 20:00 - 20:15
   **   ~~~   ** The solution for one or more of the Air Loop HVAC systems did not appear to converge
   **   ~~~   ** Air System Named = CENTRAL SYSTEM did not converge for mass flow rate
   **   ~~~   ** Check values should be zero. Most Recent values listed first.
   **   ~~~   ** Demand-to-Supply interface mass flow rate check value iteration history trace: 6.549099E-002,6.549099E-002,6.549099E-002,6.549099E-002,6.549099E-002,6.549099E-002,6.549099E-002,6.549099E-002,6.549099E-002,6.549099E-002,
   **   ~~~   ** Supply-to-demand interface deck 1 mass flow rate check value iteration history trace: 6.549099E-002,6.549099E-002,6.549099E-002,6.549099E-002,6.549099E-002,6.549099E-002,6.549099E-002,6.549099E-002,6.549099E-002,6.549099E-002,
   **   ~~~   ** Air System Named = CENTRAL SYSTEM did not converge for energy
   **   ~~~   ** Check values should be zero. Most Recent values listed first.
   **   ~~~   ** Demand-to-Supply interface energy check value iteration history trace: 1294.241871,1294.241871,1294.241871,1294.241871,1294.241871,1294.241871,1294.241871,1294.241871,1294.241871,1294.241871,
   **   ~~~   ** Supply-to-demand interface deck 1 energy check value iteration history trace: 2156.734688,2156.734688,2156.734688,2156.734688,2156.734688,2156.734688,2156.734688,2156.734687,2156.734687,2156.734687,
   ** Warning ** SimHVAC: Maximum iterations (20) exceeded for all HVAC loops, at ANNUAL, 03/06 10:30 - 10:45
   **   ~~~   ** The solution for one or more of the Air Loop HVAC systems did not appear to converge
   **   ~~~   ** Air System Named = CENTRAL SYSTEM did not converge for mass flow rate
   **   ~~~   ** Check values should be zero. Most Recent values listed first.
   **   ~~~   ** Demand-to-Supply interface mass flow rate check value iteration history trace: 1.510721E-002,1.510721E-002,1.510721E-002,1.510721E-002,1.510721E-002,1.510721E-002,1.510721E-002,1.510721E-002,1.510721E-002,1.510721E-002,
   **   ~~~   ** Supply-to-demand interface deck 1 mass flow rate check value iteration history trace: 1.510721E-002,1.510721E-002,1.510721E-002,1.510721E-002,1.510721E-002,1.510721E-002,1.510721E-002,1.510721E-002,1.510721E-002,1.510721E-002,
   **   ~~~   ** Air System Named = CENTRAL SYSTEM did not converge for energy
   **   ~~~   ** Check values should be zero. Most Recent values listed first.
   **   ~~~   ** Demand-to-Supply interface energy check value iteration history trace: 299.381223,299.381223,299.381223,299.381223,299.381223,299.381223,299.381223,299.381223,299.381223,299.381223,
   **   ~~~   ** Supply-to-demand interface deck 1 energy check value iteration history trace: 544.021057,544.021057,544.021057,544.021057,544.021057,544.021057,544.021057,544.021057,544.021057,544.021057,
   ** Warning ** SimHVAC: Maximum iterations (20) exceeded for all HVAC loops, at ANNUAL, 03/16 10:26 - 10:28
   **   ~~~   ** The solution for one or more of the Air Loop HVAC systems did not appear to converge
   **   ~~~   ** Air System Named = CENTRAL SYSTEM did not converge for mass flow rate
   **   ~~~   ** Check values should be zero. Most Recent values listed first.
   **   ~~~   ** Demand-to-Supply interface mass flow rate check value iteration history trace: 5.949388E-002,5.949388E-002,5.949388E-002,5.949388E-002,5.949388E-002,5.949388E-002,5.949388E-002,5.949388E-002,5.949388E-002,5.949388E-002,
   **   ~~~   ** Supply-to-demand interface deck 1 mass flow rate check value iteration history trace: 5.949388E-002,5.949388E-002,5.949388E-002,5.949388E-002,5.949388E-002,5.949388E-002,5.949388E-002,5.949388E-002,5.949388E-002,5.949388E-002,
   **   ~~~   ** Air System Named = CENTRAL SYSTEM did not converge for energy
   **   ~~~   ** Check values should be zero. Most Recent values listed first.
   **   ~~~   ** Demand-to-Supply interface energy check value iteration history trace: 1172.510837,1172.510837,1172.510837,1172.510837,1172.510837,1172.510837,1172.510837,1172.510837,1172.510837,1172.510837,
   **   ~~~   ** Supply-to-demand interface deck 1 energy check value iteration history trace: 2219.173584,2219.173584,2219.173584,2219.173584,2219.173584,2219.173584,2219.173584,2219.173584,2219.173584,2219.173583,
   ** Warning ** SimHVAC: Maximum iterations (20) exceeded for all HVAC loops, at ANNUAL, 03/28 07:30 - 07:34
   **   ~~~   ** The solution for one or more of the Air Loop HVAC systems did not appear to converge
   **   ~~~   ** Air System Named = CENTRAL SYSTEM did not converge for mass flow rate
   **   ~~~   ** Check values should be zero. Most Recent values listed first.
   **   ~~~   ** Demand-to-Supply interface mass flow rate check value iteration history trace: 5.557173E-002,5.557173E-002,5.557173E-002,5.557173E-002,5.557173E-002,5.557173E-002,5.557173E-002,5.557173E-002,5.557173E-002,5.557173E-002,
   **   ~~~   ** Supply-to-demand interface deck 1 mass flow rate check value iteration history trace: 5.557173E-002,5.557173E-002,5.557173E-002,5.557173E-002,5.557173E-002,5.557173E-002,5.557173E-002,5.557173E-002,5.557173E-002,5.557173E-002,
   **   ~~~   ** Air System Named = CENTRAL SYSTEM did not converge for energy
   **   ~~~   ** Check values should be zero. Most Recent values listed first.
   **   ~~~   ** Demand-to-Supply interface energy check value iteration history trace: 1101.215198,1101.215198,1101.215198,1101.215198,1101.215198,1101.215198,1101.215198,1101.215198,1101.215198,1101.215198,
   **   ~~~   ** Supply-to-demand interface deck 1 energy check value iteration history trace: 1992.036206,1992.036206,1992.036206,1992.036206,1992.036206,1992.036206,1992.036206,1992.036206,1992.036205,1992.036205,
   ** Warning ** SimHVAC: Maximum iterations (20) exceeded for all HVAC loops, at ANNUAL, 04/18 11:15 - 11:30
   **   ~~~   ** The solution for one or more of the Air Loop HVAC systems did not appear to converge
   **   ~~~   ** Air System Named = CENTRAL SYSTEM did not converge for mass flow rate
   **   ~~~   ** Check values should be zero. Most Recent values listed first.
   **   ~~~   ** Demand-to-Supply interface mass flow rate check value iteration history trace: 6.287993E-002,6.287993E-002,6.287993E-002,6.287993E-002,6.287993E-002,6.287993E-002,6.287993E-002,6.287993E-002,6.287993E-002,6.287993E-002,
   **   ~~~   ** Supply-to-demand interface deck 1 mass flow rate check value iteration history trace: 6.287993E-002,6.287993E-002,6.287993E-002,6.287993E-002,6.287993E-002,6.287993E-002,6.287993E-002,6.287993E-002,6.287993E-002,6.287993E-002,
   **   ~~~   ** Air System Named = CENTRAL SYSTEM did not converge for energy
   **   ~~~   ** Check values should be zero. Most Recent values listed first.
   **   ~~~   ** Demand-to-Supply interface energy check value iteration history trace: 1246.083998,1246.083998,1246.083998,1246.083998,1246.083998,1246.083998,1246.083998,1246.083998,1246.083998,1246.083998,
   **   ~~~   ** Supply-to-demand interface deck 1 energy check value iteration history trace: 2063.283561,2063.283561,2063.283561,2063.283561,2063.283561,2063.283561,2063.283561,2063.283561,2063.283561,2063.283561,
   ************* Simulation Error Summary *************
   ** Warning ** The following Report Variables were requested but not generated -- check.rdd file
   **   ~~~   ** Either the IDF did not contain these elements, the variable name is misspelled,
   **   ~~~   ** or the requested variable is an advanced output which requires Output : Diagnostics, DisplayAdvancedReportVariables;
   ************* Key=*, VarName=BASEBOARD TOTAL HEATING ENERGY, Frequency=
   ************* Key=*, VarName=WATER HEATER NATURALGAS ENERGY, Frequency=
   ************* Key=*, VarName=COOLING COIL TOTAL HEATING ENERGY, Frequency=
   ************* There are 34 unused schedules in input.
   ************* There are 388 unused week schedules in input.
   ************* There are 397 unused day schedules in input.
   ************* Use Output:Diagnostics,DisplayUnusedSchedules; to see them.
   *************
   ************* ===== Recurring Error Summary =====
   ************* The following recurring error messages occurred.
   *************
   *************  ** Warning ** "TOTAL HOT WATER LOAD" - Target water temperature should be less than or equal to the hot water temperature error continues...
   *************  **   ~~~   **   This error occurred 139469 total times;
   *************  **   ~~~   **   during Warmup 0 times;
   *************  **   ~~~   **   during Sizing 0 times.
   *************  **   ~~~   **   Max=9.651975  Min=1.116988E-003
   *************
   *************  ** Warning ** SimHVAC: Exceeding Maximum iterations for all HVAC loops, during ANNUAL continues
   *************  **   ~~~   **   This error occurred 20 total times;
   *************  **   ~~~   **   during Warmup 0 times;
   *************  **   ~~~   **   during Sizing 0 times.
   *************
   *************
   ************* ===== Final Error Summary =====
   ************* The following error categories occurred.  Consider correcting or noting.
   ************* Nominally Unused Constructions
   ************* ..The nominally unused constructions warning is provided to alert you to potential conditions that can cause
   ************* ..extra time during simulation. Each construction is calculated by the algorithm indicated in the HeatBalanceAlgorithm
   ************* ..object. You may remove the constructions indicated (when you use the DisplayExtraWarnings option).
   *************
   ************* EnergyPlus Warmup Error Summary. During Warmup: 1 Warning; 0 Severe Errors.
   ************* EnergyPlus Sizing Error Summary. During Sizing: 4 Warning; 0 Severe Errors.
   ************* EnergyPlus Completed Successfully-- 139521 Warning; 0 Severe Errors; Elapsed Time=00hr 01min 53.63sec
