Program Version,EnergyPlus, Version 22.2.0-c249759bad, YMD=2023.09.01 15:27,
   ************* Beginning Zone Sizing Calculations
   ** Warning ** ProcessScheduleInput: Schedule:Constant="ALWAYS ON DISCRETE", Schedule Type Limits Name="ONOFF" not found -- will not be validated
   ** Warning ** Foundation:Kiva="KIVA FOUNDATION", no Interior Horizontal Insulation Material Name defined
   **   ~~~   ** Interior Horizontal Insulation Depth will not be used.
   ** Warning ** CheckUsedConstructions: There are 15 nominally unused constructions in input.
   **   ~~~   ** Each Unused construction is shown.
   ************* Construction=INTERIOR FLOOR
   ************* Construction=INTERIOR WINDOW
   ************* Construction=EXTERIOR DOOR
   ************* Construction=INTERIOR DOOR
   ************* Construction=GABLE CONSTRUCTION
   ************* Construction=CRAWL_FLOOR
   ************* Construction=INSULATED PIPE
   ************* Construction=PLAIN PIPE
   ************* Construction=TDD PIPE
   ************* Construction=TDD DOME
   ************* Construction=TDD DIFFUSER
   ************* Construction=CRAWL WALL
   ************* Construction=CEILING-FLOOR-LAYER
   ************* Construction=SLAB CONSTRUCTION W FULL R10 INSULATION
   ************* Construction=SLAB CONSTRUCTION W FULL R5 INSULATION
   ** Warning ** GetDXCoils: Coil:Heating:DX:SingleSpeed="DX_HEATING_COIL" curve values
   **   ~~~   ** ... Defrost Energy Input Ratio Function of Temperature Curve Name = DEFROSTEIR output is not equal to 1.0 (+ or - 10%) at rated conditions.
   **   ~~~   ** ... Curve output at rated conditions = 0.152
   ************* Beginning System Sizing Calculations
   ************* Beginning Plant Sizing Calculations
   ** Warning ** Coil:WaterHeating:AirToWaterHeatPump:Wrapped "HEAT PUMP WATER HEATER EVAPORATOR": Rated air volume flow rate per watt of rated total water heating capacity is out of range
   **   ~~~   ** Min Rated Vol Flow Per Watt=[4.027E-005], Rated Vol Flow Per Watt=[1.386E-004], Max Rated Vol Flow Per Watt=[8.056E-005]. See Input-Output Reference Manual for valid range.
   ** Warning ** Water heater = WATER HEATER TANK:  Recovery Efficiency and Energy Factor could not be calculated during the test for standard ratings
   **   ~~~   ** Setpoint was never recovered and/or heater never turned on
   ** Warning ** Check input. Pump nominal power or motor efficiency is set to 0, for pump=MAINS PRESSURE
   ** Warning ** AirflowNetwork::Solver::validate_distribution: Heat pump water heater is simulated along with an AirflowNetwork but is not included in the AirflowNetwork.
   ** Warning ** Output:Meter: invalid Key Name="ELECTRIC_RANGE:INTERIOREQUIPMENT:ELECTRICITY" - not found.
   ** Warning ** Output:Meter: invalid Key Name="ELECTRIC_DRYER:INTERIOREQUIPMENT:ELECTRICITY" - not found.
   ** Warning ** Output:Meter: invalid Key Name="HEATRECOVERY:ELECTRICITY" - not found.
   ** Warning ** Output:Meter: invalid Key Name="HEATING:NATURALGAS" - not found.
   ** Warning ** Output:Meter: invalid Key Name="WATERSYSTEMS:NATURALGAS" - not found.
   ** Warning ** Output:Meter: invalid Key Name="PROPANE:FACILITY" - not found.
   ** Warning ** Output:Meter: invalid Key Name="HEATING:PROPANE" - not found.
   ************* Testing Individual Branch Integrity
   ************* All Branches passed integrity testing
   ************* Testing Individual Supply Air Path Integrity
   ************* All Supply Air Paths passed integrity testing
   ************* Testing Individual Return Air Path Integrity
   ************* All Return Air Paths passed integrity testing
   ************* No node connection errors were found.
   ************* Beginning Simulation
   ** Warning ** CalcEquipmentFlowRates: "TOTAL HOT WATER LOAD" - Target water temperature is greater than the hot water temperature by (1.64 C)
   **   ~~~   **  Environment=EXTREME_WINTER, at Simulation time=01/08 06:00 - 06:15
   **   ~~~   ** ...target water temperature     = 53.33 C
   **   ~~~   ** ...hot water temperature        = 51.70 C
   **   ~~~   ** ...Target water temperature should be less than or equal to the hot water temperature. Verify temperature setpoints and schedules.
   ** Warning ** SimHVAC: Maximum iterations (20) exceeded for all HVAC loops, at ANNUAL, 02/19 13:00 - 13:15
   **   ~~~   ** The solution for one or more of the Air Loop HVAC systems did not appear to converge
   **   ~~~   ** Air System Named = CENTRAL SYSTEM did not converge for mass flow rate
   **   ~~~   ** Check values should be zero. Most Recent values listed first.
   **   ~~~   ** Demand-to-Supply interface mass flow rate check value iteration history trace: 8.032191E-002,8.032191E-002,8.032191E-002,8.032191E-002,8.032191E-002,8.032191E-002,8.032191E-002,8.032191E-002,8.032191E-002,8.032191E-002,
   **   ~~~   ** Supply-to-demand interface deck 1 mass flow rate check value iteration history trace: 8.032191E-002,8.032191E-002,8.032191E-002,8.032191E-002,8.032191E-002,8.032191E-002,8.032191E-002,8.032191E-002,8.032191E-002,8.032191E-002,
   **   ~~~   ** Air System Named = CENTRAL SYSTEM did not converge for energy
   **   ~~~   ** Check values should be zero. Most Recent values listed first.
   **   ~~~   ** Demand-to-Supply interface energy check value iteration history trace: 1591.845239,1591.845239,1591.845238,1591.845238,1591.845238,1591.845238,1591.845238,1591.845238,1591.845238,1591.845238,
   **   ~~~   ** Supply-to-demand interface deck 1 energy check value iteration history trace: 2411.821703,2411.821703,2411.821703,2411.821703,2411.821703,2411.821702,2411.821702,2411.821702,2411.821702,2411.821702,
   ** Warning ** SimHVAC: Maximum iterations (20) exceeded for all HVAC loops, at ANNUAL, 03/06 08:15 - 08:30
   **   ~~~   ** The solution for one or more of the Air Loop HVAC systems did not appear to converge
   **   ~~~   ** Air System Named = CENTRAL SYSTEM did not converge for mass flow rate
   **   ~~~   ** Check values should be zero. Most Recent values listed first.
   **   ~~~   ** Demand-to-Supply interface mass flow rate check value iteration history trace: 1.130469E-002,1.130469E-002,1.130469E-002,1.130469E-002,1.130469E-002,1.130469E-002,1.130469E-002,1.130469E-002,1.130469E-002,1.130469E-002,
   **   ~~~   ** Supply-to-demand interface deck 1 mass flow rate check value iteration history trace: 1.130469E-002,1.130469E-002,1.130469E-002,1.130469E-002,1.130469E-002,1.130469E-002,1.130469E-002,1.130469E-002,1.130469E-002,1.130469E-002,
   **   ~~~   ** Air System Named = CENTRAL SYSTEM did not converge for energy
   **   ~~~   ** Check values should be zero. Most Recent values listed first.
   **   ~~~   ** Demand-to-Supply interface energy check value iteration history trace: 224.013129,224.013129,224.013129,224.013129,224.013129,224.013129,224.013129,224.013129,224.013129,224.013129,
   **   ~~~   ** Supply-to-demand interface deck 1 energy check value iteration history trace: 398.719392,398.719392,398.719392,398.719392,398.719392,398.719392,398.719392,398.719392,398.719392,398.719392,
   ** Warning ** SimHVAC: Maximum iterations (20) exceeded for all HVAC loops, at ANNUAL, 03/14 09:45 - 10:00
   **   ~~~   ** The solution for one or more of the Air Loop HVAC systems did not appear to converge
   **   ~~~   ** Air System Named = CENTRAL SYSTEM did not converge for mass flow rate
   **   ~~~   ** Check values should be zero. Most Recent values listed first.
   **   ~~~   ** Demand-to-Supply interface mass flow rate check value iteration history trace: 5.558983E-002,5.558983E-002,5.558983E-002,5.558983E-002,5.558983E-002,5.558983E-002,5.558983E-002,5.558983E-002,5.558983E-002,5.558983E-002,
   **   ~~~   ** Supply-to-demand interface deck 1 mass flow rate check value iteration history trace: 5.558983E-002,5.558983E-002,5.558983E-002,5.558983E-002,5.558983E-002,5.558983E-002,5.558983E-002,5.558983E-002,5.558983E-002,5.558983E-002,
   **   ~~~   ** Air System Named = CENTRAL SYSTEM did not converge for energy
   **   ~~~   ** Check values should be zero. Most Recent values listed first.
   **   ~~~   ** Demand-to-Supply interface energy check value iteration history trace: 1101.619583,1101.619583,1101.619583,1101.619583,1101.619583,1101.619583,1101.619583,1101.619583,1101.619583,1101.619583,
   **   ~~~   ** Supply-to-demand interface deck 1 energy check value iteration history trace: 1883.788947,1883.788947,1883.788947,1883.788947,1883.788947,1883.788946,1883.788946,1883.788946,1883.788946,1883.788946,
   ** Warning ** SimHVAC: Maximum iterations (20) exceeded for all HVAC loops, at ANNUAL, 04/17 08:00 - 08:05
   **   ~~~   ** The solution for one or more of the Air Loop HVAC systems did not appear to converge
   **   ~~~   ** Air System Named = CENTRAL SYSTEM did not converge for mass flow rate
   **   ~~~   ** Check values should be zero. Most Recent values listed first.
   **   ~~~   ** Demand-to-Supply interface mass flow rate check value iteration history trace: 6.388403E-002,6.388403E-002,6.388403E-002,6.388403E-002,6.388403E-002,6.388403E-002,6.388403E-002,6.388403E-002,6.388403E-002,6.388403E-002,
   **   ~~~   ** Supply-to-demand interface deck 1 mass flow rate check value iteration history trace: 6.388403E-002,6.388403E-002,6.388403E-002,6.388403E-002,6.388403E-002,6.388403E-002,6.388403E-002,6.388403E-002,6.388403E-002,6.388403E-002,
   **   ~~~   ** Air System Named = CENTRAL SYSTEM did not converge for energy
   **   ~~~   ** Check values should be zero. Most Recent values listed first.
   **   ~~~   ** Demand-to-Supply interface energy check value iteration history trace: 1261.263377,1261.263376,1261.263376,1261.263376,1261.263376,1261.263376,1261.263375,1261.263375,1261.263375,1261.263375,
   **   ~~~   ** Supply-to-demand interface deck 1 energy check value iteration history trace: 2324.522023,2324.522022,2324.522022,2324.522022,2324.522021,2324.522021,2324.522021,2324.522020,2324.522020,2324.522020,
   **   ~~~   ** Node named ZONE INLET NODE shows oscillating temperatures across iterations with a repeated value of 36.211189
   **   ~~~   ** Node named ZONE INLET NODE temperature [C] iteration history trace (most recent first): 36.211189,36.211189,36.211189,36.211188,36.211188,36.211188,36.211188,36.211187,36.211187,36.211187,
   ** Warning ** SimHVAC: Maximum iterations (20) exceeded for all HVAC loops, at ANNUAL, 05/04 06:45 - 07:00
   **   ~~~   ** The solution for one or more of the Air Loop HVAC systems did not appear to converge
   **   ~~~   ** Air System Named = CENTRAL SYSTEM did not converge for mass flow rate
   **   ~~~   ** Check values should be zero. Most Recent values listed first.
   **   ~~~   ** Demand-to-Supply interface mass flow rate check value iteration history trace: 7.891669E-002,7.891669E-002,7.891669E-002,7.891669E-002,7.891669E-002,7.891669E-002,7.891669E-002,7.891669E-002,7.891669E-002,7.891669E-002,
   **   ~~~   ** Supply-to-demand interface deck 1 mass flow rate check value iteration history trace: 7.891669E-002,7.891669E-002,7.891669E-002,7.891669E-002,7.891669E-002,7.891669E-002,7.891669E-002,7.891669E-002,7.891669E-002,7.891669E-002,
   **   ~~~   ** Air System Named = CENTRAL SYSTEM did not converge for energy
   **   ~~~   ** Check values should be zero. Most Recent values listed first.
   **   ~~~   ** Demand-to-Supply interface energy check value iteration history trace: 1563.738333,1563.738333,1563.738332,1563.738332,1563.738332,1563.738332,1563.738331,1563.738331,1563.738331,1563.738331,
   **   ~~~   ** Supply-to-demand interface deck 1 energy check value iteration history trace: 2746.002574,2746.002574,2746.002574,2746.002573,2746.002573,2746.002572,2746.002572,2746.002571,2746.002571,2746.002571,
   **   ~~~   ** Node named ZONE INLET NODE shows oscillating temperatures across iterations with a repeated value of 34.628484
   **   ~~~   ** Node named ZONE INLET NODE temperature [C] iteration history trace (most recent first): 34.628484,34.628484,34.628484,34.628484,34.628483,34.628483,34.628483,34.628483,34.628482,34.628482,
   ** Warning ** SimHVAC: Maximum iterations (20) exceeded for all HVAC loops, at ANNUAL, 05/04 06:53 - 07:00
   **   ~~~   ** The solution for one or more of the Air Loop HVAC systems did not appear to converge
   **   ~~~   ** Air System Named = CENTRAL SYSTEM did not converge for mass flow rate
   **   ~~~   ** Check values should be zero. Most Recent values listed first.
   **   ~~~   ** Demand-to-Supply interface mass flow rate check value iteration history trace: 8.007160E-002,8.007160E-002,8.007160E-002,8.007160E-002,8.007160E-002,8.007160E-002,8.007160E-002,8.007160E-002,8.007160E-002,8.007160E-002,
   **   ~~~   ** Supply-to-demand interface deck 1 mass flow rate check value iteration history trace: 8.007160E-002,8.007160E-002,8.007160E-002,8.007160E-002,8.007160E-002,8.007160E-002,8.007160E-002,8.007160E-002,8.007160E-002,8.007160E-002,
   **   ~~~   ** Air System Named = CENTRAL SYSTEM did not converge for energy
   **   ~~~   ** Check values should be zero. Most Recent values listed first.
   **   ~~~   ** Demand-to-Supply interface energy check value iteration history trace: 1586.703997,1586.703997,1586.703997,1586.703997,1586.703996,1586.703996,1586.703996,1586.703996,1586.703995,1586.703995,
   **   ~~~   ** Supply-to-demand interface deck 1 energy check value iteration history trace: 2786.330482,2786.330482,2786.330482,2786.330481,2786.330481,2786.330480,2786.330480,2786.330479,2786.330479,2786.330479,
   **   ~~~   ** Node named ZONE INLET NODE shows oscillating temperatures across iterations with a repeated value of 34.630240
   **   ~~~   ** Node named ZONE INLET NODE temperature [C] iteration history trace (most recent first): 34.630240,34.630240,34.630240,34.630240,34.630239,34.630239,34.630239,34.630239,34.630239,34.630238,
   ** Warning ** SimHVAC: Maximum iterations (20) exceeded for all HVAC loops, at ANNUAL, 05/06 09:47 - 09:50
   **   ~~~   ** The solution for one or more of the Air Loop HVAC systems did not appear to converge
   **   ~~~   ** Air System Named = CENTRAL SYSTEM did not converge for mass flow rate
   **   ~~~   ** Check values should be zero. Most Recent values listed first.
   **   ~~~   ** Demand-to-Supply interface mass flow rate check value iteration history trace: 8.117604E-002,8.117604E-002,8.117604E-002,8.117604E-002,8.117604E-002,8.117604E-002,8.117604E-002,8.117604E-002,8.117604E-002,8.117604E-002,
   **   ~~~   ** Supply-to-demand interface deck 1 mass flow rate check value iteration history trace: 8.117604E-002,8.117604E-002,8.117604E-002,8.117604E-002,8.117604E-002,8.117604E-002,8.117604E-002,8.117604E-002,8.117604E-002,8.117604E-002,
   **   ~~~   ** Air System Named = CENTRAL SYSTEM did not converge for energy
   **   ~~~   ** Check values should be zero. Most Recent values listed first.
   **   ~~~   ** Demand-to-Supply interface energy check value iteration history trace: 1600.804604,1600.804604,1600.804604,1600.804604,1600.804604,1600.804603,1600.804603,1600.804603,1600.804603,1600.804603,
   **   ~~~   ** Supply-to-demand interface deck 1 energy check value iteration history trace: 2848.279800,2848.279800,2848.279799,2848.279799,2848.279799,2848.279799,2848.279799,2848.279799,2848.279799,2848.279799,
   ** Warning ** SimHVAC: Maximum iterations (20) exceeded for all HVAC loops, at ANNUAL, 06/05 20:30 - 20:45
   **   ~~~   ** The solution for one or more of the Air Loop HVAC systems did not appear to converge
   **   ~~~   ** Air System Named = CENTRAL SYSTEM did not converge for mass flow rate
   **   ~~~   ** Check values should be zero. Most Recent values listed first.
   **   ~~~   ** Demand-to-Supply interface mass flow rate check value iteration history trace: 0.100222,0.100222,0.100222,0.100222,0.100222,0.100222,0.100222,0.100222,0.100222,0.100222,
   **   ~~~   ** Supply-to-demand interface deck 1 mass flow rate check value iteration history trace: 0.100222,0.100222,0.100222,0.100222,0.100222,0.100222,0.100222,0.100222,0.100222,0.100222,
   **   ~~~   ** Air System Named = CENTRAL SYSTEM did not converge for energy
   **   ~~~   ** Check values should be zero. Most Recent values listed first.
   **   ~~~   ** Demand-to-Supply interface energy check value iteration history trace: 2384.977848,2384.977848,2384.977848,2384.977848,2384.977849,2384.977849,2384.977849,2384.977849,2384.977849,2384.977849,
   **   ~~~   ** Supply-to-demand interface deck 1 energy check value iteration history trace: 1170.658874,1170.658874,1170.658874,1170.658874,1170.658874,1170.658874,1170.658874,1170.658874,1170.658874,1170.658875,
   ** Warning ** SimHVAC: Maximum iterations (20) exceeded for all HVAC loops, at ANNUAL, 06/14 06:50 - 06:55
   **   ~~~   ** The solution for one or more of the Air Loop HVAC systems did not appear to converge
   **   ~~~   ** Air System Named = CENTRAL SYSTEM did not converge for mass flow rate
   **   ~~~   ** Check values should be zero. Most Recent values listed first.
   **   ~~~   ** Demand-to-Supply interface mass flow rate check value iteration history trace: 0.100222,0.100222,0.100222,0.100222,0.100222,0.100222,0.100222,0.100222,0.100222,0.100222,
   **   ~~~   ** Supply-to-demand interface deck 1 mass flow rate check value iteration history trace: 0.100222,0.100222,0.100222,0.100222,0.100222,0.100222,0.100222,0.100222,0.100222,0.100222,
   **   ~~~   ** Air System Named = CENTRAL SYSTEM did not converge for energy
   **   ~~~   ** Check values should be zero. Most Recent values listed first.
   **   ~~~   ** Demand-to-Supply interface energy check value iteration history trace: 2360.181452,2360.181452,2360.181453,2360.181453,2360.181453,2360.181453,2360.181453,2360.181454,2360.181454,2360.181454,
   **   ~~~   ** Supply-to-demand interface deck 1 energy check value iteration history trace: 1349.156321,1349.156321,1349.156321,1349.156321,1349.156321,1349.156321,1349.156321,1349.156322,1349.156322,1349.156322,
   ** Warning ** SimHVAC: Maximum iterations (20) exceeded for all HVAC loops, at ANNUAL, 10/07 19:45 - 20:00
   **   ~~~   ** The solution for one or more of the Air Loop HVAC systems did not appear to converge
   **   ~~~   ** Air System Named = CENTRAL SYSTEM did not converge for mass flow rate
   **   ~~~   ** Check values should be zero. Most Recent values listed first.
   **   ~~~   ** Demand-to-Supply interface mass flow rate check value iteration history trace: 6.455894E-002,6.455894E-002,6.455894E-002,6.455894E-002,6.455894E-002,6.455894E-002,6.455894E-002,6.455894E-002,6.455894E-002,6.455894E-002,
   **   ~~~   ** Supply-to-demand interface deck 1 mass flow rate check value iteration history trace: 6.455894E-002,6.455894E-002,6.455894E-002,6.455894E-002,6.455894E-002,6.455894E-002,6.455894E-002,6.455894E-002,6.455894E-002,6.455894E-002,
   **   ~~~   ** Air System Named = CENTRAL SYSTEM did not converge for energy
   **   ~~~   ** Check values should be zero. Most Recent values listed first.
   **   ~~~   ** Demand-to-Supply interface energy check value iteration history trace: 1507.158879,1507.158879,1507.158879,1507.158879,1507.158879,1507.158879,1507.158879,1507.158879,1507.158879,1507.158879,
   **   ~~~   ** Supply-to-demand interface deck 1 energy check value iteration history trace: 666.188256,666.188256,666.188257,666.188257,666.188257,666.188257,666.188257,666.188257,666.188257,666.188257,
   ** Warning ** SimHVAC: Maximum iterations (20) exceeded for all HVAC loops, at ANNUAL, 11/04 08:34 - 08:38
   **   ~~~   ** The solution for one or more of the Air Loop HVAC systems did not appear to converge
   **   ~~~   ** Air System Named = CENTRAL SYSTEM did not converge for mass flow rate
   **   ~~~   ** Check values should be zero. Most Recent values listed first.
   **   ~~~   ** Demand-to-Supply interface mass flow rate check value iteration history trace: 8.430915E-002,8.430915E-002,8.430915E-002,8.430915E-002,8.430915E-002,8.430915E-002,8.430915E-002,8.430915E-002,8.430915E-002,8.430915E-002,
   **   ~~~   ** Supply-to-demand interface deck 1 mass flow rate check value iteration history trace: 8.430915E-002,8.430915E-002,8.430915E-002,8.430915E-002,8.430915E-002,8.430915E-002,8.430915E-002,8.430915E-002,8.430915E-002,8.430915E-002,
   **   ~~~   ** Air System Named = CENTRAL SYSTEM did not converge for energy
   **   ~~~   ** Check values should be zero. Most Recent values listed first.
   **   ~~~   ** Demand-to-Supply interface energy check value iteration history trace: 1670.672445,1670.672445,1670.672445,1670.672445,1670.672444,1670.672444,1670.672444,1670.672444,1670.672444,1670.672444,
   **   ~~~   ** Supply-to-demand interface deck 1 energy check value iteration history trace: 2904.914160,2904.914160,2904.914160,2904.914160,2904.914160,2904.914159,2904.914159,2904.914159,2904.914159,2904.914159,
   ** Warning ** SimHVAC: Maximum iterations (20) exceeded for all HVAC loops, at ANNUAL, 11/08 08:03 - 08:06
   **   ~~~   ** The solution for one or more of the Air Loop HVAC systems did not appear to converge
   **   ~~~   ** Air System Named = CENTRAL SYSTEM did not converge for mass flow rate
   **   ~~~   ** Check values should be zero. Most Recent values listed first.
   **   ~~~   ** Demand-to-Supply interface mass flow rate check value iteration history trace: 7.263998E-002,7.263998E-002,7.263998E-002,7.263998E-002,7.263998E-002,7.263998E-002,7.263998E-002,7.263998E-002,7.263998E-002,7.263998E-002,
   **   ~~~   ** Supply-to-demand interface deck 1 mass flow rate check value iteration history trace: 7.263998E-002,7.263998E-002,7.263998E-002,7.263998E-002,7.263998E-002,7.263998E-002,7.263998E-002,7.263998E-002,7.263998E-002,7.263998E-002,
   **   ~~~   ** Air System Named = CENTRAL SYSTEM did not converge for energy
   **   ~~~   ** Check values should be zero. Most Recent values listed first.
   **   ~~~   ** Demand-to-Supply interface energy check value iteration history trace: 1439.489081,1439.489081,1439.489081,1439.489081,1439.489081,1439.489081,1439.489081,1439.489081,1439.489081,1439.489081,
   **   ~~~   ** Supply-to-demand interface deck 1 energy check value iteration history trace: 2520.051271,2520.051270,2520.051270,2520.051270,2520.051270,2520.051270,2520.051270,2520.051270,2520.051270,2520.051270,
   ** Warning ** SimHVAC: Maximum iterations (20) exceeded for all HVAC loops, at ANNUAL, 11/09 07:34 - 07:38
   **   ~~~   ** The solution for one or more of the Air Loop HVAC systems did not appear to converge
   **   ~~~   ** Air System Named = CENTRAL SYSTEM did not converge for mass flow rate
   **   ~~~   ** Check values should be zero. Most Recent values listed first.
   **   ~~~   ** Demand-to-Supply interface mass flow rate check value iteration history trace: 7.801987E-002,7.801987E-002,7.801987E-002,7.801987E-002,7.801987E-002,7.801987E-002,7.801987E-002,7.801987E-002,7.801987E-002,7.801987E-002,
   **   ~~~   ** Supply-to-demand interface deck 1 mass flow rate check value iteration history trace: 7.801987E-002,7.801987E-002,7.801987E-002,7.801987E-002,7.801987E-002,7.801987E-002,7.801987E-002,7.801987E-002,7.801987E-002,7.801987E-002,
   **   ~~~   ** Air System Named = CENTRAL SYSTEM did not converge for energy
   **   ~~~   ** Check values should be zero. Most Recent values listed first.
   **   ~~~   ** Demand-to-Supply interface energy check value iteration history trace: 1546.054712,1546.054712,1546.054712,1546.054712,1546.054712,1546.054712,1546.054712,1546.054712,1546.054712,1546.054712,
   **   ~~~   ** Supply-to-demand interface deck 1 energy check value iteration history trace: 2716.312661,2716.312661,2716.312661,2716.312661,2716.312661,2716.312661,2716.312661,2716.312661,2716.312660,2716.312660,
   ************* Simulation Error Summary *************
   ** Warning ** The following Report Variables were requested but not generated -- check.rdd file
   **   ~~~   ** Either the IDF did not contain these elements, the variable name is misspelled,
   **   ~~~   ** or the requested variable is an advanced output which requires Output : Diagnostics, DisplayAdvancedReportVariables;
   ************* Key=*, VarName=BASEBOARD TOTAL HEATING ENERGY, Frequency=
   ************* Key=*, VarName=WATER HEATER NATURALGAS ENERGY, Frequency=
   ************* Key=*, VarName=COOLING COIL TOTAL HEATING ENERGY, Frequency=
   ************* There are 34 unused schedules in input.
   ************* There are 388 unused week schedules in input.
   ************* There are 396 unused day schedules in input.
   ************* Use Output:Diagnostics,DisplayUnusedSchedules; to see them.
   *************
   ************* ===== Recurring Error Summary =====
   ************* The following recurring error messages occurred.
   *************
   *************  ** Warning ** "TOTAL HOT WATER LOAD" - Target water temperature should be less than or equal to the hot water temperature error continues...
   *************  **   ~~~   **   This error occurred 82745 total times;
   *************  **   ~~~   **   during Warmup 0 times;
   *************  **   ~~~   **   during Sizing 0 times.
   *************  **   ~~~   **   Max=10.555639  Min=2.010553E-005
   *************
   *************
   ************* ===== Final Error Summary =====
   ************* The following error categories occurred.  Consider correcting or noting.
   ************* Nominally Unused Constructions
   ************* ..The nominally unused constructions warning is provided to alert you to potential conditions that can cause
   ************* ..extra time during simulation. Each construction is calculated by the algorithm indicated in the HeatBalanceAlgorithm
   ************* ..object. You may remove the constructions indicated (when you use the DisplayExtraWarnings option).
   *************
   ************* EnergyPlus Warmup Error Summary. During Warmup: 0 Warning; 0 Severe Errors.
   ************* EnergyPlus Sizing Error Summary. During Sizing: 4 Warning; 0 Severe Errors.
   ************* EnergyPlus Completed Successfully-- 82775 Warning; 0 Severe Errors; Elapsed Time=00hr 04min 39.33sec
