Program Version,EnergyPlus, Version 22.2.0-c249759bad, YMD=2023.08.31 12:58,
   ************* Beginning Zone Sizing Calculations
   ** Warning ** ProcessScheduleInput: Schedule:Constant="ALWAYS ON DISCRETE", Schedule Type Limits Name="ONOFF" not found -- will not be validated
   ** Warning ** Foundation:Kiva="KIVA FOUNDATION", no Interior Horizontal Insulation Material Name defined
   **   ~~~   ** Interior Horizontal Insulation Depth will not be used.
   ** Warning ** CheckUsedConstructions: There are 15 nominally unused constructions in input.
   **   ~~~   ** Each Unused construction is shown.
   ************* Construction=INTERIOR FLOOR
   ************* Construction=INTERIOR WINDOW
   ************* Construction=EXTERIOR DOOR
   ************* Construction=INTERIOR DOOR
   ************* Construction=GABLE CONSTRUCTION
   ************* Construction=CRAWL_FLOOR
   ************* Construction=INSULATED PIPE
   ************* Construction=PLAIN PIPE
   ************* Construction=TDD PIPE
   ************* Construction=TDD DOME
   ************* Construction=TDD DIFFUSER
   ************* Construction=CRAWL WALL
   ************* Construction=CEILING-FLOOR-LAYER
   ************* Construction=SLAB CONSTRUCTION W FULL R10 INSULATION
   ************* Construction=SLAB CONSTRUCTION W FULL R5 INSULATION
   ** Warning ** GetDXCoils: Coil:Heating:DX:SingleSpeed="DX_HEATING_COIL" curve values
   **   ~~~   ** ... Defrost Energy Input Ratio Function of Temperature Curve Name = DEFROSTEIR output is not equal to 1.0 (+ or - 10%) at rated conditions.
   **   ~~~   ** ... Curve output at rated conditions = 0.152
   ************* Beginning System Sizing Calculations
   ************* Beginning Plant Sizing Calculations
   ** Warning ** SizeDXCoil Coil:Cooling:DX:SingleSpeed DX_COOLING_COIL
   **   ~~~   ** ...Gross Rated Total Cooling Capacity [W] will be limited by the maximum rated volume flow per rated total capacity ratio.
   **   ~~~   ** ...DX coil volume flow rate ( m3/s ) = 0.445895
   **   ~~~   ** ...Requested capacity ( W ) = 7038.758
   **   ~~~   ** ...Requested flow/capacity ratio ( m3/s/W ) = 6.334E-005
   **   ~~~   ** ...Maximum flow/capacity ratio ( m3/s/W ) = 6.041E-005
   **   ~~~   ** ...Adjusted capacity ( W ) = 7381.158
   ** Warning ** Coil:WaterHeating:AirToWaterHeatPump:Wrapped "HEAT PUMP WATER HEATER EVAPORATOR": Rated air volume flow rate per watt of rated total water heating capacity is out of range
   **   ~~~   ** Min Rated Vol Flow Per Watt=[4.027E-005], Rated Vol Flow Per Watt=[1.386E-004], Max Rated Vol Flow Per Watt=[8.056E-005]. See Input-Output Reference Manual for valid range.
   ** Warning ** Water heater = WATER HEATER TANK:  Recovery Efficiency and Energy Factor could not be calculated during the test for standard ratings
   **   ~~~   ** Setpoint was never recovered and/or heater never turned on
   ** Warning ** Check input. Pump nominal power or motor efficiency is set to 0, for pump=MAINS PRESSURE
   ** Warning ** Output:Meter: invalid Key Name="ELECTRIC_RANGE:INTERIOREQUIPMENT:ELECTRICITY" - not found.
   ** Warning ** Output:Meter: invalid Key Name="ELECTRIC_DRYER:INTERIOREQUIPMENT:ELECTRICITY" - not found.
   ** Warning ** Output:Meter: invalid Key Name="HEATRECOVERY:ELECTRICITY" - not found.
   ** Warning ** Output:Meter: invalid Key Name="HEATING:NATURALGAS" - not found.
   ** Warning ** Output:Meter: invalid Key Name="WATERSYSTEMS:NATURALGAS" - not found.
   ** Warning ** Output:Meter: invalid Key Name="PROPANE:FACILITY" - not found.
   ** Warning ** Output:Meter: invalid Key Name="HEATING:PROPANE" - not found.
   ************* Testing Individual Branch Integrity
   ************* All Branches passed integrity testing
   ************* Testing Individual Supply Air Path Integrity
   ************* All Supply Air Paths passed integrity testing
   ************* Testing Individual Return Air Path Integrity
   ************* All Return Air Paths passed integrity testing
   ************* No node connection errors were found.
   ************* Beginning Simulation
   ** Warning ** AirflowNetwork::Solver::validate_distribution: Heat pump water heater is simulated along with an AirflowNetwork but is not included in the AirflowNetwork.
   ** Warning ** CalcEquipmentFlowRates: "TOTAL HOT WATER LOAD" - Target water temperature is greater than the hot water temperature by (2.40 C)
   **   ~~~   **  Environment=EXTREME_WINTER, at Simulation time=02/10 07:00 - 07:15
   **   ~~~   ** ...target water temperature     = 53.33 C
   **   ~~~   ** ...hot water temperature        = 50.93 C
   **   ~~~   ** ...Target water temperature should be less than or equal to the hot water temperature. Verify temperature setpoints and schedules.
   ** Warning ** SimHVAC: Maximum iterations (20) exceeded for all HVAC loops, at ANNUAL, 01/02 09:15 - 09:30
   **   ~~~   ** The solution for one or more of the Air Loop HVAC systems did not appear to converge
   **   ~~~   ** Air System Named = CENTRAL SYSTEM did not converge for mass flow rate
   **   ~~~   ** Check values should be zero. Most Recent values listed first.
   **   ~~~   ** Demand-to-Supply interface mass flow rate check value iteration history trace: 9.088038E-002,9.088038E-002,9.088038E-002,9.088038E-002,9.088038E-002,9.088038E-002,9.088038E-002,9.088038E-002,9.088038E-002,9.088038E-002,
   **   ~~~   ** Supply-to-demand interface deck 1 mass flow rate check value iteration history trace: 9.088038E-002,9.088038E-002,9.088038E-002,9.088038E-002,9.088038E-002,9.088038E-002,9.088038E-002,9.088038E-002,9.088038E-002,9.088038E-002,
   **   ~~~   ** Air System Named = CENTRAL SYSTEM did not converge for energy
   **   ~~~   ** Check values should be zero. Most Recent values listed first.
   **   ~~~   ** Demand-to-Supply interface energy check value iteration history trace: 1800.732993,1800.732992,1800.732990,1800.732989,1800.732987,1800.732986,1800.732984,1800.732983,1800.732981,1800.732980,
   **   ~~~   ** Supply-to-demand interface deck 1 energy check value iteration history trace: 3076.837359,3076.837356,3076.837354,3076.837351,3076.837348,3076.837346,3076.837343,3076.837341,3076.837338,3076.837336,
   ** Warning ** SimHVAC: Maximum iterations (20) exceeded for all HVAC loops, at ANNUAL, 01/17 11:35 - 11:40
   **   ~~~   ** The solution for one or more of the Air Loop HVAC systems did not appear to converge
   **   ~~~   ** Air System Named = CENTRAL SYSTEM did not converge for mass flow rate
   **   ~~~   ** Check values should be zero. Most Recent values listed first.
   **   ~~~   ** Demand-to-Supply interface mass flow rate check value iteration history trace: 8.044431E-002,8.044431E-002,8.044431E-002,8.044431E-002,8.044431E-002,8.044431E-002,8.044431E-002,8.044431E-002,8.044431E-002,8.044431E-002,
   **   ~~~   ** Supply-to-demand interface deck 1 mass flow rate check value iteration history trace: 8.044431E-002,8.044431E-002,8.044431E-002,8.044431E-002,8.044431E-002,8.044431E-002,8.044431E-002,8.044431E-002,8.044431E-002,8.044431E-002,
   **   ~~~   ** Air System Named = CENTRAL SYSTEM did not converge for energy
   **   ~~~   ** Check values should be zero. Most Recent values listed first.
   **   ~~~   ** Demand-to-Supply interface energy check value iteration history trace: 1594.498200,1594.498198,1594.498196,1594.498194,1594.498192,1594.498190,1594.498189,1594.498187,1594.498185,1594.498183,
   **   ~~~   ** Supply-to-demand interface deck 1 energy check value iteration history trace: 2712.087585,2712.087582,2712.087579,2712.087575,2712.087572,2712.087569,2712.087566,2712.087563,2712.087559,2712.087556,
   ** Warning ** SimHVAC: Maximum iterations (20) exceeded for all HVAC loops, at ANNUAL, 02/01 10:45 - 10:50
   **   ~~~   ** The solution for one or more of the Air Loop HVAC systems did not appear to converge
   **   ~~~   ** Air System Named = CENTRAL SYSTEM did not converge for mass flow rate
   **   ~~~   ** Check values should be zero. Most Recent values listed first.
   **   ~~~   ** Demand-to-Supply interface mass flow rate check value iteration history trace: 7.202859E-002,7.202859E-002,7.202859E-002,7.202859E-002,7.202859E-002,7.202859E-002,7.202859E-002,7.202859E-002,7.202859E-002,7.202859E-002,
   **   ~~~   ** Supply-to-demand interface deck 1 mass flow rate check value iteration history trace: 7.202859E-002,7.202859E-002,7.202859E-002,7.202859E-002,7.202859E-002,7.202859E-002,7.202859E-002,7.202859E-002,7.202859E-002,7.202859E-002,
   **   ~~~   ** Air System Named = CENTRAL SYSTEM did not converge for energy
   **   ~~~   ** Check values should be zero. Most Recent values listed first.
   **   ~~~   ** Demand-to-Supply interface energy check value iteration history trace: 1427.332397,1427.332396,1427.332395,1427.332394,1427.332393,1427.332392,1427.332391,1427.332390,1427.332389,1427.332388,
   **   ~~~   ** Supply-to-demand interface deck 1 energy check value iteration history trace: 2516.125668,2516.125666,2516.125664,2516.125663,2516.125661,2516.125659,2516.125658,2516.125656,2516.125654,2516.125652,
   ** Warning ** SimHVAC: Maximum iterations (20) exceeded for all HVAC loops, at ANNUAL, 02/03 20:15 - 20:22
   **   ~~~   ** The solution for one or more of the Air Loop HVAC systems did not appear to converge
   **   ~~~   ** Air System Named = CENTRAL SYSTEM did not converge for mass flow rate
   **   ~~~   ** Check values should be zero. Most Recent values listed first.
   **   ~~~   ** Demand-to-Supply interface mass flow rate check value iteration history trace: 0.108012,0.108012,0.108012,0.108012,0.108012,0.108012,0.108012,0.108012,0.108012,0.108012,
   **   ~~~   ** Supply-to-demand interface deck 1 mass flow rate check value iteration history trace: 0.108012,0.108012,0.108012,0.108012,0.108012,0.108012,0.108012,0.108012,0.108012,0.108012,
   **   ~~~   ** Air System Named = CENTRAL SYSTEM did not converge for energy
   **   ~~~   ** Check values should be zero. Most Recent values listed first.
   **   ~~~   ** Demand-to-Supply interface energy check value iteration history trace: 2130.406443,2130.406440,2130.406437,2130.406434,2130.406431,2130.406428,2130.406425,2130.406422,2130.406419,2130.406416,
   **   ~~~   ** Supply-to-demand interface deck 1 energy check value iteration history trace: 3227.637315,3227.637311,3227.637306,3227.637302,3227.637297,3227.637293,3227.637288,3227.637284,3227.637279,3227.637275,
   ** Warning ** SimHVAC: Maximum iterations (20) exceeded for all HVAC loops, at ANNUAL, 02/09 09:45 - 10:00
   **   ~~~   ** The solution for one or more of the Air Loop HVAC systems did not appear to converge
   **   ~~~   ** Air System Named = CENTRAL SYSTEM did not converge for mass flow rate
   **   ~~~   ** Check values should be zero. Most Recent values listed first.
   **   ~~~   ** Demand-to-Supply interface mass flow rate check value iteration history trace: 7.865029E-002,7.865029E-002,7.865029E-002,7.865029E-002,7.865029E-002,7.865029E-002,7.865029E-002,7.865029E-002,7.865029E-002,7.865029E-002,
   **   ~~~   ** Supply-to-demand interface deck 1 mass flow rate check value iteration history trace: 7.865029E-002,7.865029E-002,7.865029E-002,7.865029E-002,7.865029E-002,7.865029E-002,7.865029E-002,7.865029E-002,7.865029E-002,7.865029E-002,
   **   ~~~   ** Air System Named = CENTRAL SYSTEM did not converge for energy
   **   ~~~   ** Check values should be zero. Most Recent values listed first.
   **   ~~~   ** Demand-to-Supply interface energy check value iteration history trace: 1547.975881,1547.975880,1547.975879,1547.975878,1547.975877,1547.975876,1547.975875,1547.975874,1547.975873,1547.975872,
   **   ~~~   ** Supply-to-demand interface deck 1 energy check value iteration history trace: 2764.918781,2764.918780,2764.918778,2764.918776,2764.918775,2764.918773,2764.918771,2764.918770,2764.918768,2764.918766,
   ** Warning ** SimHVAC: Maximum iterations (20) exceeded for all HVAC loops, at ANNUAL, 02/14 10:45 - 11:00
   **   ~~~   ** The solution for one or more of the Air Loop HVAC systems did not appear to converge
   **   ~~~   ** Air System Named = CENTRAL SYSTEM did not converge for mass flow rate
   **   ~~~   ** Check values should be zero. Most Recent values listed first.
   **   ~~~   ** Demand-to-Supply interface mass flow rate check value iteration history trace: 8.404291E-002,8.404291E-002,8.404291E-002,8.404291E-002,8.404291E-002,8.404291E-002,8.404291E-002,8.404291E-002,8.404291E-002,8.404291E-002,
   **   ~~~   ** Supply-to-demand interface deck 1 mass flow rate check value iteration history trace: 8.404291E-002,8.404291E-002,8.404291E-002,8.404291E-002,8.404291E-002,8.404291E-002,8.404291E-002,8.404291E-002,8.404291E-002,8.404291E-002,
   **   ~~~   ** Air System Named = CENTRAL SYSTEM did not converge for energy
   **   ~~~   ** Check values should be zero. Most Recent values listed first.
   **   ~~~   ** Demand-to-Supply interface energy check value iteration history trace: 1654.265094,1654.265093,1654.265092,1654.265091,1654.265090,1654.265089,1654.265088,1654.265087,1654.265086,1654.265085,
   **   ~~~   ** Supply-to-demand interface deck 1 energy check value iteration history trace: 2941.961162,2941.961160,2941.961159,2941.961157,2941.961155,2941.961153,2941.961152,2941.961150,2941.961148,2941.961146,
   ** Warning ** SimHVAC: Maximum iterations (20) exceeded for all HVAC loops, at ANNUAL, 02/15 10:45 - 11:00
   **   ~~~   ** The solution for one or more of the Air Loop HVAC systems did not appear to converge
   **   ~~~   ** Air System Named = CENTRAL SYSTEM did not converge for mass flow rate
   **   ~~~   ** Check values should be zero. Most Recent values listed first.
   **   ~~~   ** Demand-to-Supply interface mass flow rate check value iteration history trace: 9.122602E-002,9.122602E-002,9.122602E-002,9.122601E-002,9.122601E-002,9.122601E-002,9.122601E-002,9.122601E-002,9.122601E-002,9.122601E-002,
   **   ~~~   ** Supply-to-demand interface deck 1 mass flow rate check value iteration history trace: 9.122602E-002,9.122602E-002,9.122602E-002,9.122601E-002,9.122601E-002,9.122601E-002,9.122601E-002,9.122601E-002,9.122601E-002,9.122601E-002,
   **   ~~~   ** Air System Named = CENTRAL SYSTEM did not converge for energy
   **   ~~~   ** Check values should be zero. Most Recent values listed first.
   **   ~~~   ** Demand-to-Supply interface energy check value iteration history trace: 1807.754286,1807.754283,1807.754280,1807.754277,1807.754274,1807.754271,1807.754267,1807.754264,1807.754261,1807.754258,
   **   ~~~   ** Supply-to-demand interface deck 1 energy check value iteration history trace: 2853.603237,2853.603232,2853.603227,2853.603222,2853.603217,2853.603212,2853.603207,2853.603202,2853.603197,2853.603192,
   ** Warning ** SimHVAC: Maximum iterations (20) exceeded for all HVAC loops, at ANNUAL, 02/27 11:30 - 11:34
   **   ~~~   ** The solution for one or more of the Air Loop HVAC systems did not appear to converge
   **   ~~~   ** Air System Named = CENTRAL SYSTEM did not converge for mass flow rate
   **   ~~~   ** Check values should be zero. Most Recent values listed first.
   **   ~~~   ** Demand-to-Supply interface mass flow rate check value iteration history trace: 6.115826E-002,6.115826E-002,6.115826E-002,6.115826E-002,6.115826E-002,6.115826E-002,6.115826E-002,6.115826E-002,6.115826E-002,6.115826E-002,
   **   ~~~   ** Supply-to-demand interface deck 1 mass flow rate check value iteration history trace: 6.115826E-002,6.115826E-002,6.115826E-002,6.115826E-002,6.115826E-002,6.115826E-002,6.115826E-002,6.115826E-002,6.115826E-002,6.115826E-002,
   **   ~~~   ** Air System Named = CENTRAL SYSTEM did not converge for energy
   **   ~~~   ** Check values should be zero. Most Recent values listed first.
   **   ~~~   ** Demand-to-Supply interface energy check value iteration history trace: 1210.327206,1210.327205,1210.327203,1210.327202,1210.327200,1210.327199,1210.327197,1210.327196,1210.327195,1210.327193,
   **   ~~~   ** Supply-to-demand interface deck 1 energy check value iteration history trace: 2044.011559,2044.011556,2044.011554,2044.011551,2044.011549,2044.011546,2044.011544,2044.011541,2044.011539,2044.011536,
   ** Warning ** SimHVAC: Maximum iterations (20) exceeded for all HVAC loops, at ANNUAL, 03/01 11:45 - 11:52
   **   ~~~   ** The solution for one or more of the Air Loop HVAC systems did not appear to converge
   **   ~~~   ** Air System Named = CENTRAL SYSTEM did not converge for mass flow rate
   **   ~~~   ** Check values should be zero. Most Recent values listed first.
   **   ~~~   ** Demand-to-Supply interface mass flow rate check value iteration history trace: 5.675650E-002,5.675650E-002,5.675650E-002,5.675650E-002,5.675650E-002,5.675650E-002,5.675650E-002,5.675650E-002,5.675650E-002,5.675650E-002,
   **   ~~~   ** Supply-to-demand interface deck 1 mass flow rate check value iteration history trace: 5.675650E-002,5.675650E-002,5.675650E-002,5.675650E-002,5.675650E-002,5.675650E-002,5.675650E-002,5.675650E-002,5.675650E-002,5.675650E-002,
   **   ~~~   ** Air System Named = CENTRAL SYSTEM did not converge for energy
   **   ~~~   ** Check values should be zero. Most Recent values listed first.
   **   ~~~   ** Demand-to-Supply interface energy check value iteration history trace: 1124.684591,1124.684589,1124.684588,1124.684586,1124.684584,1124.684582,1124.684580,1124.684579,1124.684577,1124.684575,
   **   ~~~   ** Supply-to-demand interface deck 1 energy check value iteration history trace: 2040.185252,2040.185249,2040.185246,2040.185243,2040.185239,2040.185236,2040.185233,2040.185230,2040.185226,2040.185223,
   **   ~~~   ** Node named ZONE INLET NODE shows oscillating temperatures across iterations with a repeated value of 35.773003
   **   ~~~   ** Node named ZONE INLET NODE temperature [C] iteration history trace (most recent first): 35.773003,35.773003,35.773002,35.773002,35.773002,35.773002,35.773001,35.773001,35.773001,35.773001,
   ** Warning ** SimHVAC: Maximum iterations (20) exceeded for all HVAC loops, at ANNUAL, 03/06 10:03 - 10:06
   **   ~~~   ** The solution for one or more of the Air Loop HVAC systems did not appear to converge
   **   ~~~   ** Air System Named = CENTRAL SYSTEM did not converge for mass flow rate
   **   ~~~   ** Check values should be zero. Most Recent values listed first.
   **   ~~~   ** Demand-to-Supply interface mass flow rate check value iteration history trace: 8.286140E-002,8.286140E-002,8.286140E-002,8.286140E-002,8.286140E-002,8.286140E-002,8.286140E-002,8.286140E-002,8.286140E-002,8.286140E-002,
   **   ~~~   ** Supply-to-demand interface deck 1 mass flow rate check value iteration history trace: 8.286140E-002,8.286140E-002,8.286140E-002,8.286140E-002,8.286140E-002,8.286140E-002,8.286140E-002,8.286140E-002,8.286140E-002,8.286140E-002,
   **   ~~~   ** Air System Named = CENTRAL SYSTEM did not converge for energy
   **   ~~~   ** Check values should be zero. Most Recent values listed first.
   **   ~~~   ** Demand-to-Supply interface energy check value iteration history trace: 1642.056784,1642.056781,1642.056779,1642.056777,1642.056775,1642.056773,1642.056771,1642.056768,1642.056766,1642.056764,
   **   ~~~   ** Supply-to-demand interface deck 1 energy check value iteration history trace: 2775.529646,2775.529642,2775.529639,2775.529635,2775.529631,2775.529628,2775.529624,2775.529620,2775.529617,2775.529613,
   ** Warning ** SimHVAC: Maximum iterations (20) exceeded for all HVAC loops, at ANNUAL, 03/09 21:00 - 21:15
   **   ~~~   ** The solution for one or more of the Air Loop HVAC systems did not appear to converge
   **   ~~~   ** Air System Named = CENTRAL SYSTEM did not converge for mass flow rate
   **   ~~~   ** Check values should be zero. Most Recent values listed first.
   **   ~~~   ** Demand-to-Supply interface mass flow rate check value iteration history trace: 0.108214,0.108214,0.108214,0.108214,0.108214,0.108214,0.108214,0.108214,0.108214,0.108214,
   **   ~~~   ** Supply-to-demand interface deck 1 mass flow rate check value iteration history trace: 0.108214,0.108214,0.108214,0.108214,0.108214,0.108214,0.108214,0.108214,0.108214,0.108214,
   **   ~~~   ** Air System Named = CENTRAL SYSTEM did not converge for energy
   **   ~~~   ** Check values should be zero. Most Recent values listed first.
   **   ~~~   ** Demand-to-Supply interface energy check value iteration history trace: 2143.694953,2143.694950,2143.694947,2143.694945,2143.694942,2143.694939,2143.694936,2143.694933,2143.694930,2143.694928,
   **   ~~~   ** Supply-to-demand interface deck 1 energy check value iteration history trace: 3274.410457,3274.410453,3274.410449,3274.410444,3274.410440,3274.410436,3274.410431,3274.410427,3274.410423,3274.410418,
   ** Warning ** SimHVAC: Maximum iterations (20) exceeded for all HVAC loops, at ANNUAL, 03/25 21:08 - 21:15
   **   ~~~   ** The solution for one or more of the Air Loop HVAC systems did not appear to converge
   **   ~~~   ** Air System Named = CENTRAL SYSTEM did not converge for mass flow rate
   **   ~~~   ** Check values should be zero. Most Recent values listed first.
   **   ~~~   ** Demand-to-Supply interface mass flow rate check value iteration history trace: 0.106839,0.106839,0.106839,0.106839,0.106839,0.106839,0.106839,0.106839,0.106839,0.106839,
   **   ~~~   ** Supply-to-demand interface deck 1 mass flow rate check value iteration history trace: 0.106839,0.106839,0.106839,0.106839,0.106839,0.106839,0.106839,0.106839,0.106839,0.106839,
   **   ~~~   ** Air System Named = CENTRAL SYSTEM did not converge for energy
   **   ~~~   ** Check values should be zero. Most Recent values listed first.
   **   ~~~   ** Demand-to-Supply interface energy check value iteration history trace: 2092.208285,2092.208283,2092.208280,2092.208277,2092.208274,2092.208271,2092.208268,2092.208265,2092.208263,2092.208260,
   **   ~~~   ** Supply-to-demand interface deck 1 energy check value iteration history trace: 3289.930545,3289.930541,3289.930536,3289.930532,3289.930527,3289.930523,3289.930518,3289.930514,3289.930509,3289.930505,
   ** Warning ** SimHVAC: Maximum iterations (20) exceeded for all HVAC loops, at ANNUAL, 10/08 11:00 - 11:15
   **   ~~~   ** The solution for one or more of the Air Loop HVAC systems did not appear to converge
   **   ~~~   ** Air System Named = CENTRAL SYSTEM did not converge for mass flow rate
   **   ~~~   ** Check values should be zero. Most Recent values listed first.
   **   ~~~   ** Demand-to-Supply interface mass flow rate check value iteration history trace: 7.578431E-002,7.578431E-002,7.578431E-002,7.578431E-002,7.578431E-002,7.578431E-002,7.578431E-002,7.578431E-002,7.578431E-002,7.578431E-002,
   **   ~~~   ** Supply-to-demand interface deck 1 mass flow rate check value iteration history trace: 7.578431E-002,7.578431E-002,7.578431E-002,7.578431E-002,7.578431E-002,7.578431E-002,7.578431E-002,7.578431E-002,7.578431E-002,7.578431E-002,
   **   ~~~   ** Air System Named = CENTRAL SYSTEM did not converge for energy
   **   ~~~   ** Check values should be zero. Most Recent values listed first.
   **   ~~~   ** Demand-to-Supply interface energy check value iteration history trace: 1785.053427,1785.053429,1785.053432,1785.053435,1785.053438,1785.053441,1785.053444,1785.053446,1785.053449,1785.053452,
   **   ~~~   ** Supply-to-demand interface deck 1 energy check value iteration history trace: 946.815903,946.815905,946.815907,946.815908,946.815910,946.815911,946.815913,946.815914,946.815916,946.815917,
   ** Warning ** SimHVAC: Maximum iterations (20) exceeded for all HVAC loops, at ANNUAL, 11/26 09:36 - 09:39
   **   ~~~   ** The solution for one or more of the Air Loop HVAC systems did not appear to converge
   **   ~~~   ** Air System Named = CENTRAL SYSTEM did not converge for mass flow rate
   **   ~~~   ** Check values should be zero. Most Recent values listed first.
   **   ~~~   ** Demand-to-Supply interface mass flow rate check value iteration history trace: 7.585781E-002,7.585781E-002,7.585781E-002,7.585781E-002,7.585781E-002,7.585781E-002,7.585781E-002,7.585781E-002,7.585781E-002,7.585781E-002,
   **   ~~~   ** Supply-to-demand interface deck 1 mass flow rate check value iteration history trace: 7.585781E-002,7.585781E-002,7.585781E-002,7.585781E-002,7.585781E-002,7.585781E-002,7.585781E-002,7.585781E-002,7.585781E-002,7.585781E-002,
   **   ~~~   ** Air System Named = CENTRAL SYSTEM did not converge for energy
   **   ~~~   ** Check values should be zero. Most Recent values listed first.
   **   ~~~   ** Demand-to-Supply interface energy check value iteration history trace: 1493.110409,1493.110408,1493.110407,1493.110406,1493.110405,1493.110404,1493.110403,1493.110402,1493.110401,1493.110400,
   **   ~~~   ** Supply-to-demand interface deck 1 energy check value iteration history trace: 2651.255598,2651.255596,2651.255594,2651.255592,2651.255591,2651.255589,2651.255587,2651.255585,2651.255584,2651.255582,
   ************* Simulation Error Summary *************
   ** Warning ** The following Report Variables were requested but not generated -- check.rdd file
   **   ~~~   ** Either the IDF did not contain these elements, the variable name is misspelled,
   **   ~~~   ** or the requested variable is an advanced output which requires Output : Diagnostics, DisplayAdvancedReportVariables;
   ************* Key=*, VarName=BASEBOARD TOTAL HEATING ENERGY, Frequency=
   ************* Key=*, VarName=WATER HEATER NATURALGAS ENERGY, Frequency=
   ************* Key=*, VarName=COOLING COIL TOTAL HEATING ENERGY, Frequency=
   ************* There are 34 unused schedules in input.
   ************* There are 388 unused week schedules in input.
   ************* There are 396 unused day schedules in input.
   ************* Use Output:Diagnostics,DisplayUnusedSchedules; to see them.
   *************
   ************* ===== Recurring Error Summary =====
   ************* The following recurring error messages occurred.
   *************
   *************  ** Warning ** "TOTAL HOT WATER LOAD" - Target water temperature should be less than or equal to the hot water temperature error continues...
   *************  **   ~~~   **   This error occurred 175265 total times;
   *************  **   ~~~   **   during Warmup 0 times;
   *************  **   ~~~   **   during Sizing 0 times.
   *************  **   ~~~   **   Max=20.786024  Min=3.924433E-005
   *************
   *************
   ************* ===== Final Error Summary =====
   ************* The following error categories occurred.  Consider correcting or noting.
   ************* Nominally Unused Constructions
   ************* ..The nominally unused constructions warning is provided to alert you to potential conditions that can cause
   ************* ..extra time during simulation. Each construction is calculated by the algorithm indicated in the HeatBalanceAlgorithm
   ************* ..object. You may remove the constructions indicated (when you use the DisplayExtraWarnings option).
   *************
   ************* EnergyPlus Warmup Error Summary. During Warmup: 1 Warning; 0 Severe Errors.
   ************* EnergyPlus Sizing Error Summary. During Sizing: 4 Warning; 0 Severe Errors.
   ************* EnergyPlus Completed Successfully-- 175297 Warning; 0 Severe Errors; Elapsed Time=00hr 06min  1.63sec
