Program Version,EnergyPlus, Version 22.2.0-c249759bad, YMD=2023.09.01 20:03,
   ************* Beginning Zone Sizing Calculations
   ** Warning ** ProcessScheduleInput: Schedule:Constant="ALWAYS ON DISCRETE", Schedule Type Limits Name="ONOFF" not found -- will not be validated
   ** Warning ** Foundation:Kiva="KIVA FOUNDATION", no Interior Horizontal Insulation Material Name defined
   **   ~~~   ** Interior Horizontal Insulation Depth will not be used.
   ** Warning ** CheckUsedConstructions: There are 15 nominally unused constructions in input.
   **   ~~~   ** Each Unused construction is shown.
   ************* Construction=INTERIOR FLOOR
   ************* Construction=INTERIOR WINDOW
   ************* Construction=EXTERIOR DOOR
   ************* Construction=INTERIOR DOOR
   ************* Construction=GABLE CONSTRUCTION
   ************* Construction=CRAWL_FLOOR
   ************* Construction=INSULATED PIPE
   ************* Construction=PLAIN PIPE
   ************* Construction=TDD PIPE
   ************* Construction=TDD DOME
   ************* Construction=TDD DIFFUSER
   ************* Construction=CRAWL WALL
   ************* Construction=CEILING-FLOOR-LAYER
   ************* Construction=SLAB CONSTRUCTION W FULL R10 INSULATION
   ************* Construction=SLAB CONSTRUCTION W FULL R5 INSULATION
   ** Warning ** GetDXCoils: Coil:Heating:DX:SingleSpeed="DX_HEATING_COIL" curve values
   **   ~~~   ** ... Defrost Energy Input Ratio Function of Temperature Curve Name = DEFROSTEIR output is not equal to 1.0 (+ or - 10%) at rated conditions.
   **   ~~~   ** ... Curve output at rated conditions = 0.152
   ************* Beginning System Sizing Calculations
   ************* Beginning Plant Sizing Calculations
   ** Warning ** SizeDXCoil Coil:Cooling:DX:SingleSpeed DX_COOLING_COIL
   **   ~~~   ** ...Gross Rated Total Cooling Capacity [W] will be limited by the maximum rated volume flow per rated total capacity ratio.
   **   ~~~   ** ...DX coil volume flow rate ( m3/s ) = 0.484390
   **   ~~~   ** ...Requested capacity ( W ) = 7188.760
   **   ~~~   ** ...Requested flow/capacity ratio ( m3/s/W ) = 6.738E-005
   **   ~~~   ** ...Maximum flow/capacity ratio ( m3/s/W ) = 6.041E-005
   **   ~~~   ** ...Adjusted capacity ( W ) = 8018.375
   ** Warning ** Coil:WaterHeating:AirToWaterHeatPump:Wrapped "HEAT PUMP WATER HEATER EVAPORATOR": Rated air volume flow rate per watt of rated total water heating capacity is out of range
   **   ~~~   ** Min Rated Vol Flow Per Watt=[4.027E-005], Rated Vol Flow Per Watt=[1.510E-004], Max Rated Vol Flow Per Watt=[8.056E-005]. See Input-Output Reference Manual for valid range.
   ************* SizeFan: : Potential issue with equipment sizing for Fan:OnOff HEAT PUMP WATER HEATER FAN
   **   ~~~   ** User-Specified Maximum Flow Rate [m3/s] = 0.22653
   **   ~~~   ** differs from Design Size Maximum Flow Rate [m3/s] = 7.55250E-002
   **   ~~~   ** This may, or may not, indicate mismatched component sizes.
   **   ~~~   ** Verify that the value entered is intended and is consistent with other components.
   ** Warning ** Water heater = WATER HEATER TANK:  Recovery Efficiency and Energy Factor could not be calculated during the test for standard ratings
   **   ~~~   ** Setpoint was never recovered and/or heater never turned on
   ** Warning ** Check input. Pump nominal power or motor efficiency is set to 0, for pump=MAINS PRESSURE
   ** Warning ** Output:Meter: invalid Key Name="ELECTRIC_RANGE:INTERIOREQUIPMENT:ELECTRICITY" - not found.
   ** Warning ** Output:Meter: invalid Key Name="ELECTRIC_DRYER:INTERIOREQUIPMENT:ELECTRICITY" - not found.
   ** Warning ** Output:Meter: invalid Key Name="HEATRECOVERY:ELECTRICITY" - not found.
   ** Warning ** Output:Meter: invalid Key Name="HEATING:NATURALGAS" - not found.
   ** Warning ** Output:Meter: invalid Key Name="WATERSYSTEMS:NATURALGAS" - not found.
   ** Warning ** Output:Meter: invalid Key Name="PROPANE:FACILITY" - not found.
   ** Warning ** Output:Meter: invalid Key Name="HEATING:PROPANE" - not found.
   ************* Testing Individual Branch Integrity
   ************* All Branches passed integrity testing
   ************* Testing Individual Supply Air Path Integrity
   ************* All Supply Air Paths passed integrity testing
   ************* Testing Individual Return Air Path Integrity
   ************* All Return Air Paths passed integrity testing
   ************* No node connection errors were found.
   ************* Beginning Simulation
   ** Warning ** AirflowNetwork::Solver::validate_distribution: Heat pump water heater is simulated along with an AirflowNetwork but is not included in the AirflowNetwork.
   ** Warning ** CalcEquipmentFlowRates: "TOTAL HOT WATER LOAD" - Target water temperature is greater than the hot water temperature by (3.97 C)
   **   ~~~   **  Environment=EXTREME_WINTER, at Simulation time=01/06 07:00 - 07:15
   **   ~~~   ** ...target water temperature     = 53.33 C
   **   ~~~   ** ...hot water temperature        = 49.36 C
   **   ~~~   ** ...Target water temperature should be less than or equal to the hot water temperature. Verify temperature setpoints and schedules.
   ** Warning ** SimHVAC: Maximum iterations (20) exceeded for all HVAC loops, at EXTREME_WINTER, 01/06 13:00 - 13:05
   **   ~~~   ** The solution for one or more of the Air Loop HVAC systems did not appear to converge
   **   ~~~   ** Air System Named = CENTRAL SYSTEM did not converge for mass flow rate
   **   ~~~   ** Check values should be zero. Most Recent values listed first.
   **   ~~~   ** Demand-to-Supply interface mass flow rate check value iteration history trace: 7.481889E-002,7.481889E-002,7.481889E-002,7.481889E-002,7.481889E-002,7.481889E-002,7.481889E-002,7.481889E-002,7.481889E-002,7.481889E-002,
   **   ~~~   ** Supply-to-demand interface deck 1 mass flow rate check value iteration history trace: 7.481889E-002,7.481889E-002,7.481889E-002,7.481889E-002,7.481889E-002,7.481889E-002,7.481889E-002,7.481889E-002,7.481889E-002,7.481889E-002,
   **   ~~~   ** Air System Named = CENTRAL SYSTEM did not converge for energy
   **   ~~~   ** Check values should be zero. Most Recent values listed first.
   **   ~~~   ** Demand-to-Supply interface energy check value iteration history trace: 1482.687797,1482.687797,1482.687797,1482.687797,1482.687796,1482.687796,1482.687796,1482.687796,1482.687796,1482.687796,
   **   ~~~   ** Supply-to-demand interface deck 1 energy check value iteration history trace: 2195.751236,2195.751236,2195.751236,2195.751236,2195.751236,2195.751236,2195.751235,2195.751235,2195.751235,2195.751235,
   ** Warning ** SimHVAC: Maximum iterations (20) exceeded for all HVAC loops, at ANNUAL, 01/06 14:00 - 14:05
   **   ~~~   ** The solution for one or more of the Air Loop HVAC systems did not appear to converge
   **   ~~~   ** Air System Named = CENTRAL SYSTEM did not converge for mass flow rate
   **   ~~~   ** Check values should be zero. Most Recent values listed first.
   **   ~~~   ** Demand-to-Supply interface mass flow rate check value iteration history trace: 7.139390E-002,7.139390E-002,7.139390E-002,7.139390E-002,7.139390E-002,7.139390E-002,7.139390E-002,7.139390E-002,7.139390E-002,7.139390E-002,
   **   ~~~   ** Supply-to-demand interface deck 1 mass flow rate check value iteration history trace: 7.139390E-002,7.139390E-002,7.139390E-002,7.139390E-002,7.139390E-002,7.139390E-002,7.139390E-002,7.139390E-002,7.139390E-002,7.139390E-002,
   **   ~~~   ** Air System Named = CENTRAL SYSTEM did not converge for energy
   **   ~~~   ** Check values should be zero. Most Recent values listed first.
   **   ~~~   ** Demand-to-Supply interface energy check value iteration history trace: 1414.829211,1414.829211,1414.829211,1414.829211,1414.829211,1414.829211,1414.829211,1414.829210,1414.829210,1414.829210,
   **   ~~~   ** Supply-to-demand interface deck 1 energy check value iteration history trace: 2128.649690,2128.649690,2128.649690,2128.649689,2128.649689,2128.649689,2128.649689,2128.649689,2128.649689,2128.649689,
   ** Warning ** SimHVAC: Maximum iterations (20) exceeded for all HVAC loops, at ANNUAL, 01/16 23:15 - 23:22
   **   ~~~   ** The solution for one or more of the Air Loop HVAC systems did not appear to converge
   **   ~~~   ** Air System Named = CENTRAL SYSTEM did not converge for mass flow rate
   **   ~~~   ** Check values should be zero. Most Recent values listed first.
   **   ~~~   ** Demand-to-Supply interface mass flow rate check value iteration history trace: 7.676497E-002,7.676497E-002,7.676497E-002,7.676497E-002,7.676497E-002,7.676497E-002,7.676497E-002,7.676497E-002,7.676497E-002,7.676497E-002,
   **   ~~~   ** Supply-to-demand interface deck 1 mass flow rate check value iteration history trace: 7.676497E-002,7.676497E-002,7.676497E-002,7.676497E-002,7.676497E-002,7.676497E-002,7.676497E-002,7.676497E-002,7.676497E-002,7.676497E-002,
   **   ~~~   ** Air System Named = CENTRAL SYSTEM did not converge for energy
   **   ~~~   ** Check values should be zero. Most Recent values listed first.
   **   ~~~   ** Demand-to-Supply interface energy check value iteration history trace: 1428.286208,1428.286208,1428.286208,1428.286208,1428.286208,1428.286208,1428.286208,1428.286208,1428.286207,1428.286207,
   **   ~~~   ** Supply-to-demand interface deck 1 energy check value iteration history trace: 2288.708758,2288.708757,2288.708757,2288.708757,2288.708757,2288.708757,2288.708757,2288.708757,2288.708757,2288.708756,
   ** Warning ** SimHVAC: Maximum iterations (20) exceeded for all HVAC loops, at ANNUAL, 01/22 11:49 - 11:52
   **   ~~~   ** The solution for one or more of the Air Loop HVAC systems did not appear to converge
   **   ~~~   ** Air System Named = CENTRAL SYSTEM did not converge for mass flow rate
   **   ~~~   ** Check values should be zero. Most Recent values listed first.
   **   ~~~   ** Demand-to-Supply interface mass flow rate check value iteration history trace: 8.461794E-002,8.461794E-002,8.461794E-002,8.461794E-002,8.461794E-002,8.461794E-002,8.461794E-002,8.461794E-002,8.461794E-002,8.461794E-002,
   **   ~~~   ** Supply-to-demand interface deck 1 mass flow rate check value iteration history trace: 8.461794E-002,8.461794E-002,8.461794E-002,8.461794E-002,8.461794E-002,8.461794E-002,8.461794E-002,8.461794E-002,8.461794E-002,8.461794E-002,
   **   ~~~   ** Air System Named = CENTRAL SYSTEM did not converge for energy
   **   ~~~   ** Check values should be zero. Most Recent values listed first.
   **   ~~~   ** Demand-to-Supply interface energy check value iteration history trace: 1676.921333,1676.921333,1676.921333,1676.921333,1676.921333,1676.921332,1676.921332,1676.921332,1676.921332,1676.921332,
   **   ~~~   ** Supply-to-demand interface deck 1 energy check value iteration history trace: 2634.462135,2634.462135,2634.462135,2634.462135,2634.462135,2634.462135,2634.462134,2634.462134,2634.462134,2634.462134,
   ** Warning ** SimHVAC: Maximum iterations (20) exceeded for all HVAC loops, at ANNUAL, 01/27 10:38 - 10:39
   **   ~~~   ** The solution for one or more of the Air Loop HVAC systems did not appear to converge
   **   ~~~   ** Air System Named = CENTRAL SYSTEM did not converge for mass flow rate
   **   ~~~   ** Check values should be zero. Most Recent values listed first.
   **   ~~~   ** Demand-to-Supply interface mass flow rate check value iteration history trace: 6.322690E-002,6.322690E-002,6.322690E-002,6.322690E-002,6.322690E-002,6.322690E-002,6.322690E-002,6.322690E-002,6.322690E-002,6.322690E-002,
   **   ~~~   ** Supply-to-demand interface deck 1 mass flow rate check value iteration history trace: 6.322690E-002,6.322690E-002,6.322690E-002,6.322690E-002,6.322690E-002,6.322690E-002,6.322690E-002,6.322690E-002,6.322690E-002,6.322690E-002,
   **   ~~~   ** Air System Named = CENTRAL SYSTEM did not converge for energy
   **   ~~~   ** Check values should be zero. Most Recent values listed first.
   **   ~~~   ** Demand-to-Supply interface energy check value iteration history trace: 1249.789750,1249.789750,1249.789750,1249.789750,1249.789750,1249.789750,1249.789750,1249.789750,1249.789750,1249.789750,
   **   ~~~   ** Supply-to-demand interface deck 1 energy check value iteration history trace: 2336.666278,2336.666278,2336.666278,2336.666278,2336.666278,2336.666278,2336.666278,2336.666278,2336.666278,2336.666278,
   ** Warning ** SimHVAC: Maximum iterations (20) exceeded for all HVAC loops, at ANNUAL, 02/03 11:45 - 11:52
   **   ~~~   ** The solution for one or more of the Air Loop HVAC systems did not appear to converge
   **   ~~~   ** Air System Named = CENTRAL SYSTEM did not converge for mass flow rate
   **   ~~~   ** Check values should be zero. Most Recent values listed first.
   **   ~~~   ** Demand-to-Supply interface mass flow rate check value iteration history trace: 6.910520E-002,6.910520E-002,6.910520E-002,6.910520E-002,6.910520E-002,6.910520E-002,6.910520E-002,6.910520E-002,6.910520E-002,6.910520E-002,
   **   ~~~   ** Supply-to-demand interface deck 1 mass flow rate check value iteration history trace: 6.910520E-002,6.910520E-002,6.910520E-002,6.910520E-002,6.910520E-002,6.910520E-002,6.910520E-002,6.910520E-002,6.910520E-002,6.910520E-002,
   **   ~~~   ** Air System Named = CENTRAL SYSTEM did not converge for energy
   **   ~~~   ** Check values should be zero. Most Recent values listed first.
   **   ~~~   ** Demand-to-Supply interface energy check value iteration history trace: 1368.862804,1368.862804,1368.862804,1368.862804,1368.862804,1368.862804,1368.862804,1368.862804,1368.862803,1368.862803,
   **   ~~~   ** Supply-to-demand interface deck 1 energy check value iteration history trace: 2401.491249,2401.491249,2401.491249,2401.491249,2401.491249,2401.491249,2401.491249,2401.491249,2401.491248,2401.491248,
   ** Warning ** SimHVAC: Maximum iterations (20) exceeded for all HVAC loops, at ANNUAL, 02/19 11:45 - 11:49
   **   ~~~   ** The solution for one or more of the Air Loop HVAC systems did not appear to converge
   **   ~~~   ** Air System Named = CENTRAL SYSTEM did not converge for mass flow rate
   **   ~~~   ** Check values should be zero. Most Recent values listed first.
   **   ~~~   ** Demand-to-Supply interface mass flow rate check value iteration history trace: 8.440063E-002,8.440063E-002,8.440063E-002,8.440063E-002,8.440063E-002,8.440063E-002,8.440063E-002,8.440063E-002,8.440063E-002,8.440063E-002,
   **   ~~~   ** Supply-to-demand interface deck 1 mass flow rate check value iteration history trace: 8.440063E-002,8.440063E-002,8.440063E-002,8.440063E-002,8.440063E-002,8.440063E-002,8.440063E-002,8.440063E-002,8.440063E-002,8.440063E-002,
   **   ~~~   ** Air System Named = CENTRAL SYSTEM did not converge for energy
   **   ~~~   ** Check values should be zero. Most Recent values listed first.
   **   ~~~   ** Demand-to-Supply interface energy check value iteration history trace: 1667.156952,1667.156952,1667.156952,1667.156952,1667.156952,1667.156952,1667.156951,1667.156951,1667.156951,1667.156951,
   **   ~~~   ** Supply-to-demand interface deck 1 energy check value iteration history trace: 2622.817335,2622.817335,2622.817335,2622.817334,2622.817334,2622.817334,2622.817334,2622.817334,2622.817334,2622.817333,
   ** Warning ** SimHVAC: Maximum iterations (20) exceeded for all HVAC loops, at ANNUAL, 03/10 08:30 - 08:33
   **   ~~~   ** The solution for one or more of the Air Loop HVAC systems did not appear to converge
   **   ~~~   ** Air System Named = CENTRAL SYSTEM did not converge for mass flow rate
   **   ~~~   ** Check values should be zero. Most Recent values listed first.
   **   ~~~   ** Demand-to-Supply interface mass flow rate check value iteration history trace: 5.878980E-002,5.878980E-002,5.878980E-002,5.878980E-002,5.878980E-002,5.878980E-002,5.878980E-002,5.878980E-002,5.878980E-002,5.878980E-002,
   **   ~~~   ** Supply-to-demand interface deck 1 mass flow rate check value iteration history trace: 5.878980E-002,5.878980E-002,5.878980E-002,5.878980E-002,5.878980E-002,5.878980E-002,5.878980E-002,5.878980E-002,5.878980E-002,5.878980E-002,
   **   ~~~   ** Air System Named = CENTRAL SYSTEM did not converge for energy
   **   ~~~   ** Check values should be zero. Most Recent values listed first.
   **   ~~~   ** Demand-to-Supply interface energy check value iteration history trace: 1161.183725,1161.183725,1161.183725,1161.183725,1161.183725,1161.183725,1161.183725,1161.183725,1161.183725,1161.183725,
   **   ~~~   ** Supply-to-demand interface deck 1 energy check value iteration history trace: 2140.989101,2140.989101,2140.989101,2140.989101,2140.989101,2140.989101,2140.989101,2140.989101,2140.989101,2140.989101,
   ** Warning ** SimHVAC: Maximum iterations (20) exceeded for all HVAC loops, at ANNUAL, 03/16 07:45 - 07:52
   **   ~~~   ** The solution for one or more of the Air Loop HVAC systems did not appear to converge
   **   ~~~   ** Air System Named = CENTRAL SYSTEM did not converge for mass flow rate
   **   ~~~   ** Check values should be zero. Most Recent values listed first.
   **   ~~~   ** Demand-to-Supply interface mass flow rate check value iteration history trace: 5.801271E-002,5.801271E-002,5.801271E-002,5.801271E-002,5.801271E-002,5.801271E-002,5.801271E-002,5.801271E-002,5.801271E-002,5.801271E-002,
   **   ~~~   ** Supply-to-demand interface deck 1 mass flow rate check value iteration history trace: 5.801271E-002,5.801271E-002,5.801271E-002,5.801271E-002,5.801271E-002,5.801271E-002,5.801271E-002,5.801271E-002,5.801271E-002,5.801271E-002,
   **   ~~~   ** Air System Named = CENTRAL SYSTEM did not converge for energy
   **   ~~~   ** Check values should be zero. Most Recent values listed first.
   **   ~~~   ** Demand-to-Supply interface energy check value iteration history trace: 1155.442901,1155.442901,1155.442901,1155.442901,1155.442901,1155.442901,1155.442901,1155.442901,1155.442901,1155.442901,
   **   ~~~   ** Supply-to-demand interface deck 1 energy check value iteration history trace: 2039.065572,2039.065572,2039.065572,2039.065572,2039.065572,2039.065572,2039.065572,2039.065572,2039.065572,2039.065572,
   ** Warning ** SimHVAC: Maximum iterations (20) exceeded for all HVAC loops, at ANNUAL, 03/18 23:00 - 23:15
   **   ~~~   ** The solution for one or more of the Air Loop HVAC systems did not appear to converge
   **   ~~~   ** Air System Named = CENTRAL SYSTEM did not converge for mass flow rate
   **   ~~~   ** Check values should be zero. Most Recent values listed first.
   **   ~~~   ** Demand-to-Supply interface mass flow rate check value iteration history trace: 6.062886E-002,6.062886E-002,6.062886E-002,6.062886E-002,6.062886E-002,6.062886E-002,6.062886E-002,6.062886E-002,6.062886E-002,6.062886E-002,
   **   ~~~   ** Supply-to-demand interface deck 1 mass flow rate check value iteration history trace: 6.062886E-002,6.062886E-002,6.062886E-002,6.062886E-002,6.062886E-002,6.062886E-002,6.062886E-002,6.062886E-002,6.062886E-002,6.062886E-002,
   **   ~~~   ** Air System Named = CENTRAL SYSTEM did not converge for energy
   **   ~~~   ** Check values should be zero. Most Recent values listed first.
   **   ~~~   ** Demand-to-Supply interface energy check value iteration history trace: 1123.212470,1123.212470,1123.212470,1123.212470,1123.212470,1123.212470,1123.212470,1123.212470,1123.212470,1123.212470,
   **   ~~~   ** Supply-to-demand interface deck 1 energy check value iteration history trace: 1971.465689,1971.465689,1971.465688,1971.465688,1971.465688,1971.465688,1971.465688,1971.465688,1971.465688,1971.465688,
   ** Warning ** SimHVAC: Maximum iterations (20) exceeded for all HVAC loops, at ANNUAL, 03/31 08:45 - 09:00
   **   ~~~   ** The solution for one or more of the Air Loop HVAC systems did not appear to converge
   **   ~~~   ** Air System Named = CENTRAL SYSTEM did not converge for mass flow rate
   **   ~~~   ** Check values should be zero. Most Recent values listed first.
   **   ~~~   ** Demand-to-Supply interface mass flow rate check value iteration history trace: 6.644236E-002,6.644236E-002,6.644236E-002,6.644236E-002,6.644236E-002,6.644236E-002,6.644236E-002,6.644236E-002,6.644236E-002,6.644236E-002,
   **   ~~~   ** Supply-to-demand interface deck 1 mass flow rate check value iteration history trace: 6.644236E-002,6.644236E-002,6.644236E-002,6.644236E-002,6.644236E-002,6.644236E-002,6.644236E-002,6.644236E-002,6.644236E-002,6.644236E-002,
   **   ~~~   ** Air System Named = CENTRAL SYSTEM did not converge for energy
   **   ~~~   ** Check values should be zero. Most Recent values listed first.
   **   ~~~   ** Demand-to-Supply interface energy check value iteration history trace: 1317.015870,1317.015870,1317.015869,1317.015869,1317.015869,1317.015869,1317.015868,1317.015868,1317.015868,1317.015867,
   **   ~~~   ** Supply-to-demand interface deck 1 energy check value iteration history trace: 2383.507440,2383.507440,2383.507439,2383.507439,2383.507438,2383.507437,2383.507437,2383.507436,2383.507436,2383.507435,
   **   ~~~   ** Node named ZONE INLET NODE shows oscillating temperatures across iterations with a repeated value of 35.700384
   **   ~~~   ** Node named ZONE INLET NODE temperature [C] iteration history trace (most recent first): 35.700384,35.700384,35.700384,35.700383,35.700383,35.700383,35.700382,35.700382,35.700382,35.700381,
   ** Warning ** SimHVAC: Maximum iterations (20) exceeded for all HVAC loops, at ANNUAL, 03/31 20:30 - 20:45
   **   ~~~   ** The solution for one or more of the Air Loop HVAC systems did not appear to converge
   **   ~~~   ** Air System Named = CENTRAL SYSTEM did not converge for mass flow rate
   **   ~~~   ** Check values should be zero. Most Recent values listed first.
   **   ~~~   ** Demand-to-Supply interface mass flow rate check value iteration history trace: 9.356007E-002,9.356007E-002,9.356007E-002,9.356007E-002,9.356007E-002,9.356007E-002,9.356007E-002,9.356007E-002,9.356007E-002,9.356007E-002,
   **   ~~~   ** Supply-to-demand interface deck 1 mass flow rate check value iteration history trace: 9.356007E-002,9.356007E-002,9.356007E-002,9.356007E-002,9.356007E-002,9.356007E-002,9.356007E-002,9.356007E-002,9.356007E-002,9.356007E-002,
   **   ~~~   ** Air System Named = CENTRAL SYSTEM did not converge for energy
   **   ~~~   ** Check values should be zero. Most Recent values listed first.
   **   ~~~   ** Demand-to-Supply interface energy check value iteration history trace: 1853.017111,1853.017111,1853.017111,1853.017110,1853.017110,1853.017110,1853.017110,1853.017110,1853.017110,1853.017110,
   **   ~~~   ** Supply-to-demand interface deck 1 energy check value iteration history trace: 2852.069129,2852.069128,2852.069128,2852.069128,2852.069128,2852.069128,2852.069128,2852.069127,2852.069127,2852.069127,
   ** Warning ** SimHVAC: Maximum iterations (20) exceeded for all HVAC loops, at ANNUAL, 04/01 09:00 - 09:15
   **   ~~~   ** The solution for one or more of the Air Loop HVAC systems did not appear to converge
   **   ~~~   ** Air System Named = CENTRAL SYSTEM did not converge for mass flow rate
   **   ~~~   ** Check values should be zero. Most Recent values listed first.
   **   ~~~   ** Demand-to-Supply interface mass flow rate check value iteration history trace: 6.429354E-002,6.429354E-002,6.429354E-002,6.429354E-002,6.429354E-002,6.429354E-002,6.429354E-002,6.429354E-002,6.429354E-002,6.429354E-002,
   **   ~~~   ** Supply-to-demand interface deck 1 mass flow rate check value iteration history trace: 6.429354E-002,6.429354E-002,6.429354E-002,6.429354E-002,6.429354E-002,6.429354E-002,6.429354E-002,6.429354E-002,6.429354E-002,6.429354E-002,
   **   ~~~   ** Air System Named = CENTRAL SYSTEM did not converge for energy
   **   ~~~   ** Check values should be zero. Most Recent values listed first.
   **   ~~~   ** Demand-to-Supply interface energy check value iteration history trace: 1274.103645,1274.103645,1274.103645,1274.103645,1274.103645,1274.103645,1274.103645,1274.103645,1274.103645,1274.103645,
   **   ~~~   ** Supply-to-demand interface deck 1 energy check value iteration history trace: 2314.471469,2314.471469,2314.471468,2314.471468,2314.471468,2314.471468,2314.471468,2314.471468,2314.471468,2314.471468,
   ** Warning ** SimHVAC: Maximum iterations (20) exceeded for all HVAC loops, at ANNUAL, 04/02 08:00 - 08:02
   **   ~~~   ** The solution for one or more of the Air Loop HVAC systems did not appear to converge
   **   ~~~   ** Air System Named = CENTRAL SYSTEM did not converge for mass flow rate
   **   ~~~   ** Check values should be zero. Most Recent values listed first.
   **   ~~~   ** Demand-to-Supply interface mass flow rate check value iteration history trace: 5.196487E-002,5.196487E-002,5.196487E-002,5.196487E-002,5.196487E-002,5.196487E-002,5.196487E-002,5.196487E-002,5.196487E-002,5.196487E-002,
   **   ~~~   ** Supply-to-demand interface deck 1 mass flow rate check value iteration history trace: 5.196487E-002,5.196487E-002,5.196487E-002,5.196487E-002,5.196487E-002,5.196487E-002,5.196487E-002,5.196487E-002,5.196487E-002,5.196487E-002,
   **   ~~~   ** Air System Named = CENTRAL SYSTEM did not converge for energy
   **   ~~~   ** Check values should be zero. Most Recent values listed first.
   **   ~~~   ** Demand-to-Supply interface energy check value iteration history trace: 1029.793316,1029.793316,1029.793316,1029.793316,1029.793316,1029.793316,1029.793316,1029.793316,1029.793316,1029.793316,
   **   ~~~   ** Supply-to-demand interface deck 1 energy check value iteration history trace: 1846.123605,1846.123605,1846.123604,1846.123604,1846.123604,1846.123604,1846.123604,1846.123604,1846.123604,1846.123604,
   ************* Simulation Error Summary *************
   ** Warning ** The following Report Variables were requested but not generated -- check.rdd file
   **   ~~~   ** Either the IDF did not contain these elements, the variable name is misspelled,
   **   ~~~   ** or the requested variable is an advanced output which requires Output : Diagnostics, DisplayAdvancedReportVariables;
   ************* Key=*, VarName=BASEBOARD TOTAL HEATING ENERGY, Frequency=
   ************* Key=*, VarName=WATER HEATER NATURALGAS ENERGY, Frequency=
   ************* Key=*, VarName=COOLING COIL TOTAL HEATING ENERGY, Frequency=
   ************* There are 34 unused schedules in input.
   ************* There are 388 unused week schedules in input.
   ************* There are 396 unused day schedules in input.
   ************* Use Output:Diagnostics,DisplayUnusedSchedules; to see them.
   *************
   ************* ===== Recurring Error Summary =====
   ************* The following recurring error messages occurred.
   *************
   *************  ** Warning ** "TOTAL HOT WATER LOAD" - Target water temperature should be less than or equal to the hot water temperature error continues...
   *************  **   ~~~   **   This error occurred 162285 total times;
   *************  **   ~~~   **   during Warmup 0 times;
   *************  **   ~~~   **   during Sizing 0 times.
   *************  **   ~~~   **   Max=14.953071  Min=1.759814E-004
   *************
   *************  ** Warning ** SimHVAC: Exceeding Maximum iterations for all HVAC loops, during ANNUAL continues
   *************  **   ~~~   **   This error occurred 15 total times;
   *************  **   ~~~   **   during Warmup 0 times;
   *************  **   ~~~   **   during Sizing 0 times.
   *************
   *************
   ************* ===== Final Error Summary =====
   ************* The following error categories occurred.  Consider correcting or noting.
   ************* Nominally Unused Constructions
   ************* ..The nominally unused constructions warning is provided to alert you to potential conditions that can cause
   ************* ..extra time during simulation. Each construction is calculated by the algorithm indicated in the HeatBalanceAlgorithm
   ************* ..object. You may remove the constructions indicated (when you use the DisplayExtraWarnings option).
   *************
   ************* EnergyPlus Warmup Error Summary. During Warmup: 1 Warning; 0 Severe Errors.
   ************* EnergyPlus Sizing Error Summary. During Sizing: 4 Warning; 0 Severe Errors.
   ************* EnergyPlus Completed Successfully-- 162332 Warning; 0 Severe Errors; Elapsed Time=00hr 01min 39.32sec
