Program Version,EnergyPlus, Version 22.2.0-c249759bad, YMD=2023.09.01 20:06,
   ************* Beginning Zone Sizing Calculations
   ** Warning ** ProcessScheduleInput: Schedule:Constant="ALWAYS ON DISCRETE", Schedule Type Limits Name="ONOFF" not found -- will not be validated
   ** Warning ** Foundation:Kiva="KIVA FOUNDATION", no Interior Horizontal Insulation Material Name defined
   **   ~~~   ** Interior Horizontal Insulation Depth will not be used.
   ** Warning ** CheckUsedConstructions: There are 15 nominally unused constructions in input.
   **   ~~~   ** Each Unused construction is shown.
   ************* Construction=INTERIOR FLOOR
   ************* Construction=INTERIOR WINDOW
   ************* Construction=EXTERIOR DOOR
   ************* Construction=INTERIOR DOOR
   ************* Construction=GABLE CONSTRUCTION
   ************* Construction=CRAWL_FLOOR
   ************* Construction=INSULATED PIPE
   ************* Construction=PLAIN PIPE
   ************* Construction=TDD PIPE
   ************* Construction=TDD DOME
   ************* Construction=TDD DIFFUSER
   ************* Construction=CRAWL WALL
   ************* Construction=CEILING-FLOOR-LAYER
   ************* Construction=SLAB CONSTRUCTION W FULL R10 INSULATION
   ************* Construction=SLAB CONSTRUCTION W FULL R5 INSULATION
   ** Warning ** GetDXCoils: Coil:Heating:DX:SingleSpeed="DX_HEATING_COIL" curve values
   **   ~~~   ** ... Defrost Energy Input Ratio Function of Temperature Curve Name = DEFROSTEIR output is not equal to 1.0 (+ or - 10%) at rated conditions.
   **   ~~~   ** ... Curve output at rated conditions = 0.152
   ************* Beginning System Sizing Calculations
   ************* Beginning Plant Sizing Calculations
   ** Warning ** SizeDXCoil Coil:Cooling:DX:SingleSpeed DX_COOLING_COIL
   **   ~~~   ** ...Gross Rated Total Cooling Capacity [W] will be limited by the maximum rated volume flow per rated total capacity ratio.
   **   ~~~   ** ...DX coil volume flow rate ( m3/s ) = 0.423145
   **   ~~~   ** ...Requested capacity ( W ) = 6825.003
   **   ~~~   ** ...Requested flow/capacity ratio ( m3/s/W ) = 6.199E-005
   **   ~~~   ** ...Maximum flow/capacity ratio ( m3/s/W ) = 6.041E-005
   **   ~~~   ** ...Adjusted capacity ( W ) = 7004.554
   ** Warning ** Coil:WaterHeating:AirToWaterHeatPump:Wrapped "HEAT PUMP WATER HEATER EVAPORATOR": Rated air volume flow rate per watt of rated total water heating capacity is out of range
   **   ~~~   ** Min Rated Vol Flow Per Watt=[4.027E-005], Rated Vol Flow Per Watt=[1.510E-004], Max Rated Vol Flow Per Watt=[8.056E-005]. See Input-Output Reference Manual for valid range.
   ************* SizeFan: : Potential issue with equipment sizing for Fan:OnOff HEAT PUMP WATER HEATER FAN
   **   ~~~   ** User-Specified Maximum Flow Rate [m3/s] = 0.22653
   **   ~~~   ** differs from Design Size Maximum Flow Rate [m3/s] = 7.55250E-002
   **   ~~~   ** This may, or may not, indicate mismatched component sizes.
   **   ~~~   ** Verify that the value entered is intended and is consistent with other components.
   ** Warning ** Water heater = WATER HEATER TANK:  Recovery Efficiency and Energy Factor could not be calculated during the test for standard ratings
   **   ~~~   ** Setpoint was never recovered and/or heater never turned on
   ** Warning ** Check input. Pump nominal power or motor efficiency is set to 0, for pump=MAINS PRESSURE
   ** Warning ** Output:Meter: invalid Key Name="ELECTRIC_RANGE:INTERIOREQUIPMENT:ELECTRICITY" - not found.
   ** Warning ** Output:Meter: invalid Key Name="ELECTRIC_DRYER:INTERIOREQUIPMENT:ELECTRICITY" - not found.
   ** Warning ** Output:Meter: invalid Key Name="HEATRECOVERY:ELECTRICITY" - not found.
   ** Warning ** Output:Meter: invalid Key Name="HEATING:NATURALGAS" - not found.
   ** Warning ** Output:Meter: invalid Key Name="WATERSYSTEMS:NATURALGAS" - not found.
   ** Warning ** Output:Meter: invalid Key Name="PROPANE:FACILITY" - not found.
   ** Warning ** Output:Meter: invalid Key Name="HEATING:PROPANE" - not found.
   ************* Testing Individual Branch Integrity
   ************* All Branches passed integrity testing
   ************* Testing Individual Supply Air Path Integrity
   ************* All Supply Air Paths passed integrity testing
   ************* Testing Individual Return Air Path Integrity
   ************* All Return Air Paths passed integrity testing
   ************* No node connection errors were found.
   ************* Beginning Simulation
   ** Warning ** AirflowNetwork::Solver::validate_distribution: Heat pump water heater is simulated along with an AirflowNetwork but is not included in the AirflowNetwork.
   ** Warning ** CalcEquipmentFlowRates: "TOTAL HOT WATER LOAD" - Target water temperature is greater than the hot water temperature by (3.80 C)
   **   ~~~   **  Environment=EXTREME_WINTER, at Simulation time=01/29 07:00 - 07:15
   **   ~~~   ** ...target water temperature     = 53.33 C
   **   ~~~   ** ...hot water temperature        = 49.53 C
   **   ~~~   ** ...Target water temperature should be less than or equal to the hot water temperature. Verify temperature setpoints and schedules.
   ** Warning ** SimHVAC: Maximum iterations (20) exceeded for all HVAC loops, at ANNUAL, 01/18 17:00 - 17:15
   **   ~~~   ** The solution for one or more of the Air Loop HVAC systems did not appear to converge
   **   ~~~   ** Air System Named = CENTRAL SYSTEM did not converge for mass flow rate
   **   ~~~   ** Check values should be zero. Most Recent values listed first.
   **   ~~~   ** Demand-to-Supply interface mass flow rate check value iteration history trace: 9.482190E-002,9.482190E-002,9.482190E-002,9.482190E-002,9.482190E-002,9.482190E-002,9.482190E-002,9.482190E-002,9.482190E-002,9.482190E-002,
   **   ~~~   ** Supply-to-demand interface deck 1 mass flow rate check value iteration history trace: 9.482190E-002,9.482190E-002,9.482190E-002,9.482190E-002,9.482190E-002,9.482190E-002,9.482190E-002,9.482190E-002,9.482190E-002,9.482190E-002,
   **   ~~~   ** Air System Named = CENTRAL SYSTEM did not converge for energy
   **   ~~~   ** Check values should be zero. Most Recent values listed first.
   **   ~~~   ** Demand-to-Supply interface energy check value iteration history trace: 1875.736504,1875.736504,1875.736504,1875.736504,1875.736504,1875.736503,1875.736503,1875.736503,1875.736503,1875.736503,
   **   ~~~   ** Supply-to-demand interface deck 1 energy check value iteration history trace: 2887.541227,2887.541226,2887.541226,2887.541226,2887.541226,2887.541226,2887.541226,2887.541225,2887.541225,2887.541225,
   ** Warning ** SimHVAC: Maximum iterations (20) exceeded for all HVAC loops, at ANNUAL, 01/21 22:00 - 22:05
   **   ~~~   ** The solution for one or more of the Air Loop HVAC systems did not appear to converge
   **   ~~~   ** Air System Named = CENTRAL SYSTEM did not converge for mass flow rate
   **   ~~~   ** Check values should be zero. Most Recent values listed first.
   **   ~~~   ** Demand-to-Supply interface mass flow rate check value iteration history trace: 0.155086,0.155086,0.155086,0.155086,0.155086,0.155086,0.155086,0.155086,0.155086,0.155086,
   **   ~~~   ** Supply-to-demand interface deck 1 mass flow rate check value iteration history trace: 0.155086,0.155086,0.155086,0.155086,0.155086,0.155086,0.155086,0.155086,0.155086,0.155086,
   **   ~~~   ** Air System Named = CENTRAL SYSTEM did not converge for energy
   **   ~~~   ** Check values should be zero. Most Recent values listed first.
   **   ~~~   ** Demand-to-Supply interface energy check value iteration history trace: 3071.689092,3071.689091,3071.689091,3071.689091,3071.689090,3071.689090,3071.689090,3071.689089,3071.689089,3071.689089,
   **   ~~~   ** Supply-to-demand interface deck 1 energy check value iteration history trace: 4100.652921,4100.652920,4100.652920,4100.652920,4100.652919,4100.652919,4100.652918,4100.652918,4100.652917,4100.652917,
   ** Warning ** SimHVAC: Maximum iterations (20) exceeded for all HVAC loops, at ANNUAL, 02/06 17:23 - 17:30
   **   ~~~   ** The solution for one or more of the Air Loop HVAC systems did not appear to converge
   **   ~~~   ** Air System Named = CENTRAL SYSTEM did not converge for mass flow rate
   **   ~~~   ** Check values should be zero. Most Recent values listed first.
   **   ~~~   ** Demand-to-Supply interface mass flow rate check value iteration history trace: 0.105976,0.105976,0.105976,0.105976,0.105976,0.105976,0.105976,0.105976,0.105976,0.105976,
   **   ~~~   ** Supply-to-demand interface deck 1 mass flow rate check value iteration history trace: 0.105976,0.105976,0.105976,0.105976,0.105976,0.105976,0.105976,0.105976,0.105976,0.105976,
   **   ~~~   ** Air System Named = CENTRAL SYSTEM did not converge for energy
   **   ~~~   ** Check values should be zero. Most Recent values listed first.
   **   ~~~   ** Demand-to-Supply interface energy check value iteration history trace: 2098.793993,2098.793993,2098.793993,2098.793992,2098.793992,2098.793992,2098.793992,2098.793992,2098.793992,2098.793991,
   **   ~~~   ** Supply-to-demand interface deck 1 energy check value iteration history trace: 3118.685640,3118.685640,3118.685640,3118.685640,3118.685639,3118.685639,3118.685639,3118.685639,3118.685638,3118.685638,
   ** Warning ** SimHVAC: Maximum iterations (20) exceeded for all HVAC loops, at ANNUAL, 02/15 16:45 - 17:00
   **   ~~~   ** The solution for one or more of the Air Loop HVAC systems did not appear to converge
   **   ~~~   ** Air System Named = CENTRAL SYSTEM did not converge for mass flow rate
   **   ~~~   ** Check values should be zero. Most Recent values listed first.
   **   ~~~   ** Demand-to-Supply interface mass flow rate check value iteration history trace: 0.113968,0.113968,0.113968,0.113968,0.113968,0.113968,0.113968,0.113968,0.113968,0.113968,
   **   ~~~   ** Supply-to-demand interface deck 1 mass flow rate check value iteration history trace: 0.113968,0.113968,0.113968,0.113968,0.113968,0.113968,0.113968,0.113968,0.113968,0.113968,
   **   ~~~   ** Air System Named = CENTRAL SYSTEM did not converge for energy
   **   ~~~   ** Check values should be zero. Most Recent values listed first.
   **   ~~~   ** Demand-to-Supply interface energy check value iteration history trace: 2244.073887,2244.073887,2244.073887,2244.073887,2244.073887,2244.073887,2244.073886,2244.073886,2244.073886,2244.073886,
   **   ~~~   ** Supply-to-demand interface deck 1 energy check value iteration history trace: 3248.987842,3248.987842,3248.987842,3248.987842,3248.987841,3248.987841,3248.987841,3248.987841,3248.987840,3248.987840,
   ** Warning ** SimHVAC: Maximum iterations (20) exceeded for all HVAC loops, at ANNUAL, 02/22 14:15 - 14:30
   **   ~~~   ** The solution for one or more of the Air Loop HVAC systems did not appear to converge
   **   ~~~   ** Air System Named = CENTRAL SYSTEM did not converge for mass flow rate
   **   ~~~   ** Check values should be zero. Most Recent values listed first.
   **   ~~~   ** Demand-to-Supply interface mass flow rate check value iteration history trace: 7.055089E-002,7.055089E-002,7.055089E-002,7.055089E-002,7.055089E-002,7.055089E-002,7.055089E-002,7.055089E-002,7.055089E-002,7.055089E-002,
   **   ~~~   ** Supply-to-demand interface deck 1 mass flow rate check value iteration history trace: 7.055089E-002,7.055089E-002,7.055089E-002,7.055089E-002,7.055089E-002,7.055089E-002,7.055089E-002,7.055089E-002,7.055089E-002,7.055089E-002,
   **   ~~~   ** Air System Named = CENTRAL SYSTEM did not converge for energy
   **   ~~~   ** Check values should be zero. Most Recent values listed first.
   **   ~~~   ** Demand-to-Supply interface energy check value iteration history trace: 1397.880400,1397.880399,1397.880399,1397.880399,1397.880399,1397.880399,1397.880399,1397.880399,1397.880399,1397.880399,
   **   ~~~   ** Supply-to-demand interface deck 1 energy check value iteration history trace: 2089.287858,2089.287857,2089.287857,2089.287857,2089.287857,2089.287857,2089.287857,2089.287857,2089.287856,2089.287856,
   ** Warning ** SimHVAC: Maximum iterations (20) exceeded for all HVAC loops, at ANNUAL, 03/02 12:15 - 12:30
   **   ~~~   ** The solution for one or more of the Air Loop HVAC systems did not appear to converge
   **   ~~~   ** Air System Named = CENTRAL SYSTEM did not converge for mass flow rate
   **   ~~~   ** Check values should be zero. Most Recent values listed first.
   **   ~~~   ** Demand-to-Supply interface mass flow rate check value iteration history trace: 6.746415E-002,6.746415E-002,6.746415E-002,6.746415E-002,6.746415E-002,6.746415E-002,6.746415E-002,6.746415E-002,6.746415E-002,6.746415E-002,
   **   ~~~   ** Supply-to-demand interface deck 1 mass flow rate check value iteration history trace: 6.746415E-002,6.746415E-002,6.746415E-002,6.746415E-002,6.746415E-002,6.746415E-002,6.746415E-002,6.746415E-002,6.746415E-002,6.746415E-002,
   **   ~~~   ** Air System Named = CENTRAL SYSTEM did not converge for energy
   **   ~~~   ** Check values should be zero. Most Recent values listed first.
   **   ~~~   ** Demand-to-Supply interface energy check value iteration history trace: 1336.885457,1336.885457,1336.885457,1336.885457,1336.885457,1336.885457,1336.885457,1336.885457,1336.885456,1336.885456,
   **   ~~~   ** Supply-to-demand interface deck 1 energy check value iteration history trace: 2333.383773,2333.383773,2333.383772,2333.383772,2333.383772,2333.383772,2333.383772,2333.383772,2333.383772,2333.383772,
   ** Warning ** SimHVAC: Maximum iterations (20) exceeded for all HVAC loops, at ANNUAL, 03/13 10:45 - 11:00
   **   ~~~   ** The solution for one or more of the Air Loop HVAC systems did not appear to converge
   **   ~~~   ** Air System Named = CENTRAL SYSTEM did not converge for mass flow rate
   **   ~~~   ** Check values should be zero. Most Recent values listed first.
   **   ~~~   ** Demand-to-Supply interface mass flow rate check value iteration history trace: 6.888627E-002,6.888627E-002,6.888627E-002,6.888627E-002,6.888627E-002,6.888627E-002,6.888627E-002,6.888627E-002,6.888627E-002,6.888627E-002,
   **   ~~~   ** Supply-to-demand interface deck 1 mass flow rate check value iteration history trace: 6.888627E-002,6.888627E-002,6.888627E-002,6.888627E-002,6.888627E-002,6.888627E-002,6.888627E-002,6.888627E-002,6.888627E-002,6.888627E-002,
   **   ~~~   ** Air System Named = CENTRAL SYSTEM did not converge for energy
   **   ~~~   ** Check values should be zero. Most Recent values listed first.
   **   ~~~   ** Demand-to-Supply interface energy check value iteration history trace: 1365.000941,1365.000941,1365.000940,1365.000940,1365.000940,1365.000940,1365.000940,1365.000939,1365.000939,1365.000939,
   **   ~~~   ** Supply-to-demand interface deck 1 energy check value iteration history trace: 2445.835408,2445.835408,2445.835407,2445.835407,2445.835406,2445.835406,2445.835406,2445.835405,2445.835405,2445.835405,
   ** Warning ** SimHVAC: Maximum iterations (20) exceeded for all HVAC loops, at ANNUAL, 03/14 12:45 - 13:00
   **   ~~~   ** The solution for one or more of the Air Loop HVAC systems did not appear to converge
   **   ~~~   ** Air System Named = CENTRAL SYSTEM did not converge for mass flow rate
   **   ~~~   ** Check values should be zero. Most Recent values listed first.
   **   ~~~   ** Demand-to-Supply interface mass flow rate check value iteration history trace: 7.027983E-002,7.027983E-002,7.027983E-002,7.027983E-002,7.027983E-002,7.027983E-002,7.027983E-002,7.027983E-002,7.027983E-002,7.027983E-002,
   **   ~~~   ** Supply-to-demand interface deck 1 mass flow rate check value iteration history trace: 7.027983E-002,7.027983E-002,7.027983E-002,7.027983E-002,7.027983E-002,7.027983E-002,7.027983E-002,7.027983E-002,7.027983E-002,7.027983E-002,
   **   ~~~   ** Air System Named = CENTRAL SYSTEM did not converge for energy
   **   ~~~   ** Check values should be zero. Most Recent values listed first.
   **   ~~~   ** Demand-to-Supply interface energy check value iteration history trace: 1367.311258,1367.311258,1367.311258,1367.311258,1367.311258,1367.311258,1367.311258,1367.311258,1367.311258,1367.311258,
   **   ~~~   ** Supply-to-demand interface deck 1 energy check value iteration history trace: 2401.217637,2401.217637,2401.217637,2401.217637,2401.217636,2401.217636,2401.217636,2401.217636,2401.217636,2401.217636,
   ** Warning ** SimHVAC: Maximum iterations (20) exceeded for all HVAC loops, at ANNUAL, 03/19 23:15 - 23:30
   **   ~~~   ** The solution for one or more of the Air Loop HVAC systems did not appear to converge
   **   ~~~   ** Air System Named = CENTRAL SYSTEM did not converge for mass flow rate
   **   ~~~   ** Check values should be zero. Most Recent values listed first.
   **   ~~~   ** Demand-to-Supply interface mass flow rate check value iteration history trace: 9.879391E-002,9.879391E-002,9.879391E-002,9.879391E-002,9.879391E-002,9.879391E-002,9.879391E-002,9.879391E-002,9.879391E-002,9.879391E-002,
   **   ~~~   ** Supply-to-demand interface deck 1 mass flow rate check value iteration history trace: 9.879391E-002,9.879391E-002,9.879391E-002,9.879391E-002,9.879391E-002,9.879391E-002,9.879391E-002,9.879391E-002,9.879391E-002,9.879391E-002,
   **   ~~~   ** Air System Named = CENTRAL SYSTEM did not converge for energy
   **   ~~~   ** Check values should be zero. Most Recent values listed first.
   **   ~~~   ** Demand-to-Supply interface energy check value iteration history trace: 1844.318464,1844.318464,1844.318464,1844.318464,1844.318464,1844.318463,1844.318463,1844.318463,1844.318463,1844.318463,
   **   ~~~   ** Supply-to-demand interface deck 1 energy check value iteration history trace: 2751.184737,2751.184737,2751.184736,2751.184736,2751.184736,2751.184736,2751.184736,2751.184735,2751.184735,2751.184735,
   ** Warning ** SimHVAC: Maximum iterations (20) exceeded for all HVAC loops, at ANNUAL, 03/22 13:15 - 13:30
   **   ~~~   ** The solution for one or more of the Air Loop HVAC systems did not appear to converge
   **   ~~~   ** Air System Named = CENTRAL SYSTEM did not converge for mass flow rate
   **   ~~~   ** Check values should be zero. Most Recent values listed first.
   **   ~~~   ** Demand-to-Supply interface mass flow rate check value iteration history trace: 6.242927E-002,6.242927E-002,6.242927E-002,6.242927E-002,6.242927E-002,6.242927E-002,6.242927E-002,6.242927E-002,6.242927E-002,6.242927E-002,
   **   ~~~   ** Supply-to-demand interface deck 1 mass flow rate check value iteration history trace: 6.242927E-002,6.242927E-002,6.242927E-002,6.242927E-002,6.242927E-002,6.242927E-002,6.242927E-002,6.242927E-002,6.242927E-002,6.242927E-002,
   **   ~~~   ** Air System Named = CENTRAL SYSTEM did not converge for energy
   **   ~~~   ** Check values should be zero. Most Recent values listed first.
   **   ~~~   ** Demand-to-Supply interface energy check value iteration history trace: 1237.161493,1237.161493,1237.161493,1237.161493,1237.161493,1237.161493,1237.161492,1237.161492,1237.161492,1237.161492,
   **   ~~~   ** Supply-to-demand interface deck 1 energy check value iteration history trace: 2092.777436,2092.777436,2092.777436,2092.777436,2092.777436,2092.777436,2092.777436,2092.777436,2092.777436,2092.777435,
   ** Warning ** SimHVAC: Maximum iterations (20) exceeded for all HVAC loops, at ANNUAL, 03/28 13:00 - 13:15
   **   ~~~   ** The solution for one or more of the Air Loop HVAC systems did not appear to converge
   **   ~~~   ** Air System Named = CENTRAL SYSTEM did not converge for mass flow rate
   **   ~~~   ** Check values should be zero. Most Recent values listed first.
   **   ~~~   ** Demand-to-Supply interface mass flow rate check value iteration history trace: 8.194444E-002,8.194444E-002,8.194444E-002,8.194444E-002,8.194444E-002,8.194444E-002,8.194444E-002,8.194444E-002,8.194444E-002,8.194444E-002,
   **   ~~~   ** Supply-to-demand interface deck 1 mass flow rate check value iteration history trace: 8.194444E-002,8.194444E-002,8.194444E-002,8.194444E-002,8.194444E-002,8.194444E-002,8.194444E-002,8.194444E-002,8.194444E-002,8.194444E-002,
   **   ~~~   ** Air System Named = CENTRAL SYSTEM did not converge for energy
   **   ~~~   ** Check values should be zero. Most Recent values listed first.
   **   ~~~   ** Demand-to-Supply interface energy check value iteration history trace: 1623.833092,1623.833092,1623.833092,1623.833092,1623.833092,1623.833091,1623.833091,1623.833091,1623.833091,1623.833091,
   **   ~~~   ** Supply-to-demand interface deck 1 energy check value iteration history trace: 2610.685901,2610.685901,2610.685901,2610.685901,2610.685900,2610.685900,2610.685900,2610.685900,2610.685900,2610.685900,
   ** Warning ** SimHVAC: Maximum iterations (20) exceeded for all HVAC loops, at ANNUAL, 03/31 12:15 - 12:30
   **   ~~~   ** The solution for one or more of the Air Loop HVAC systems did not appear to converge
   **   ~~~   ** Air System Named = CENTRAL SYSTEM did not converge for mass flow rate
   **   ~~~   ** Check values should be zero. Most Recent values listed first.
   **   ~~~   ** Demand-to-Supply interface mass flow rate check value iteration history trace: 8.005806E-002,8.005806E-002,8.005806E-002,8.005806E-002,8.005806E-002,8.005806E-002,8.005806E-002,8.005806E-002,8.005806E-002,8.005806E-002,
   **   ~~~   ** Supply-to-demand interface deck 1 mass flow rate check value iteration history trace: 8.005806E-002,8.005806E-002,8.005806E-002,8.005806E-002,8.005806E-002,8.005806E-002,8.005806E-002,8.005806E-002,8.005806E-002,8.005806E-002,
   **   ~~~   ** Air System Named = CENTRAL SYSTEM did not converge for energy
   **   ~~~   ** Check values should be zero. Most Recent values listed first.
   **   ~~~   ** Demand-to-Supply interface energy check value iteration history trace: 1578.000010,1578.000010,1578.000009,1578.000009,1578.000009,1578.000009,1578.000009,1578.000009,1578.000009,1578.000009,
   **   ~~~   ** Supply-to-demand interface deck 1 energy check value iteration history trace: 2510.226094,2510.226094,2510.226094,2510.226094,2510.226093,2510.226093,2510.226093,2510.226093,2510.226093,2510.226093,
   ** Warning ** SimHVAC: Maximum iterations (20) exceeded for all HVAC loops, at ANNUAL, 04/04 20:45 - 20:52
   **   ~~~   ** The solution for one or more of the Air Loop HVAC systems did not appear to converge
   **   ~~~   ** Air System Named = CENTRAL SYSTEM did not converge for mass flow rate
   **   ~~~   ** Check values should be zero. Most Recent values listed first.
   **   ~~~   ** Demand-to-Supply interface mass flow rate check value iteration history trace: 0.111080,0.111080,0.111080,0.111080,0.111080,0.111080,0.111080,0.111080,0.111080,0.111080,
   **   ~~~   ** Supply-to-demand interface deck 1 mass flow rate check value iteration history trace: 0.111080,0.111080,0.111080,0.111080,0.111080,0.111080,0.111080,0.111080,0.111080,0.111080,
   **   ~~~   ** Air System Named = CENTRAL SYSTEM did not converge for energy
   **   ~~~   ** Check values should be zero. Most Recent values listed first.
   **   ~~~   ** Demand-to-Supply interface energy check value iteration history trace: 2198.986384,2198.986383,2198.986383,2198.986383,2198.986383,2198.986383,2198.986383,2198.986382,2198.986382,2198.986382,
   **   ~~~   ** Supply-to-demand interface deck 1 energy check value iteration history trace: 3269.895187,3269.895187,3269.895187,3269.895187,3269.895186,3269.895186,3269.895186,3269.895186,3269.895186,3269.895185,
   ** Warning ** SimHVAC: Maximum iterations (20) exceeded for all HVAC loops, at ANNUAL, 04/07 12:38 - 12:45
   **   ~~~   ** The solution for one or more of the Air Loop HVAC systems did not appear to converge
   **   ~~~   ** Air System Named = CENTRAL SYSTEM did not converge for mass flow rate
   **   ~~~   ** Check values should be zero. Most Recent values listed first.
   **   ~~~   ** Demand-to-Supply interface mass flow rate check value iteration history trace: 6.016852E-002,6.016852E-002,6.016852E-002,6.016852E-002,6.016852E-002,6.016852E-002,6.016852E-002,6.016852E-002,6.016852E-002,6.016852E-002,
   **   ~~~   ** Supply-to-demand interface deck 1 mass flow rate check value iteration history trace: 6.016852E-002,6.016852E-002,6.016852E-002,6.016852E-002,6.016852E-002,6.016852E-002,6.016852E-002,6.016852E-002,6.016852E-002,6.016852E-002,
   **   ~~~   ** Air System Named = CENTRAL SYSTEM did not converge for energy
   **   ~~~   ** Check values should be zero. Most Recent values listed first.
   **   ~~~   ** Demand-to-Supply interface energy check value iteration history trace: 1187.013674,1187.013674,1187.013674,1187.013674,1187.013674,1187.013674,1187.013674,1187.013674,1187.013674,1187.013673,
   **   ~~~   ** Supply-to-demand interface deck 1 energy check value iteration history trace: 2135.585782,2135.585782,2135.585782,2135.585782,2135.585782,2135.585782,2135.585782,2135.585782,2135.585782,2135.585781,
   ************* Simulation Error Summary *************
   ** Warning ** The following Report Variables were requested but not generated -- check.rdd file
   **   ~~~   ** Either the IDF did not contain these elements, the variable name is misspelled,
   **   ~~~   ** or the requested variable is an advanced output which requires Output : Diagnostics, DisplayAdvancedReportVariables;
   ************* Key=*, VarName=BASEBOARD TOTAL HEATING ENERGY, Frequency=
   ************* Key=*, VarName=WATER HEATER NATURALGAS ENERGY, Frequency=
   ************* Key=*, VarName=COOLING COIL TOTAL HEATING ENERGY, Frequency=
   ************* There are 34 unused schedules in input.
   ************* There are 388 unused week schedules in input.
   ************* There are 396 unused day schedules in input.
   ************* Use Output:Diagnostics,DisplayUnusedSchedules; to see them.
   *************
   ************* ===== Recurring Error Summary =====
   ************* The following recurring error messages occurred.
   *************
   *************  ** Warning ** "TOTAL HOT WATER LOAD" - Target water temperature should be less than or equal to the hot water temperature error continues...
   *************  **   ~~~   **   This error occurred 148551 total times;
   *************  **   ~~~   **   during Warmup 0 times;
   *************  **   ~~~   **   during Sizing 0 times.
   *************  **   ~~~   **   Max=18.396895  Min=1.624960E-004
   *************
   *************  ** Warning ** SimHVAC: Exceeding Maximum iterations for all HVAC loops, during ANNUAL continues
   *************  **   ~~~   **   This error occurred 21 total times;
   *************  **   ~~~   **   during Warmup 0 times;
   *************  **   ~~~   **   during Sizing 0 times.
   *************
   *************
   ************* ===== Final Error Summary =====
   ************* The following error categories occurred.  Consider correcting or noting.
   ************* Nominally Unused Constructions
   ************* ..The nominally unused constructions warning is provided to alert you to potential conditions that can cause
   ************* ..extra time during simulation. Each construction is calculated by the algorithm indicated in the HeatBalanceAlgorithm
   ************* ..object. You may remove the constructions indicated (when you use the DisplayExtraWarnings option).
   *************
   ************* EnergyPlus Warmup Error Summary. During Warmup: 1 Warning; 0 Severe Errors.
   ************* EnergyPlus Sizing Error Summary. During Sizing: 4 Warning; 0 Severe Errors.
   ************* EnergyPlus Completed Successfully-- 148604 Warning; 0 Severe Errors; Elapsed Time=00hr 01min 34.67sec
