Program Version,EnergyPlus, Version 22.2.0-c249759bad, YMD=2023.09.01 15:20,
   ************* Beginning Zone Sizing Calculations
   ** Warning ** ProcessScheduleInput: Schedule:Constant="ALWAYS ON DISCRETE", Schedule Type Limits Name="ONOFF" not found -- will not be validated
   ** Warning ** Foundation:Kiva="KIVA FOUNDATION", no Interior Horizontal Insulation Material Name defined
   **   ~~~   ** Interior Horizontal Insulation Depth will not be used.
   ** Warning ** CheckUsedConstructions: There are 15 nominally unused constructions in input.
   **   ~~~   ** Each Unused construction is shown.
   ************* Construction=INTERIOR FLOOR
   ************* Construction=INTERIOR WINDOW
   ************* Construction=EXTERIOR DOOR
   ************* Construction=INTERIOR DOOR
   ************* Construction=GABLE CONSTRUCTION
   ************* Construction=CRAWL_FLOOR
   ************* Construction=INSULATED PIPE
   ************* Construction=PLAIN PIPE
   ************* Construction=TDD PIPE
   ************* Construction=TDD DOME
   ************* Construction=TDD DIFFUSER
   ************* Construction=CRAWL WALL
   ************* Construction=CEILING-FLOOR-LAYER
   ************* Construction=SLAB CONSTRUCTION W FULL R10 INSULATION
   ************* Construction=SLAB CONSTRUCTION W FULL R5 INSULATION
   ** Warning ** GetDXCoils: Coil:Heating:DX:SingleSpeed="DX_HEATING_COIL" curve values
   **   ~~~   ** ... Defrost Energy Input Ratio Function of Temperature Curve Name = DEFROSTEIR output is not equal to 1.0 (+ or - 10%) at rated conditions.
   **   ~~~   ** ... Curve output at rated conditions = 0.152
   ************* Beginning System Sizing Calculations
   ************* Beginning Plant Sizing Calculations
   ** Warning ** SizeDXCoil Coil:Cooling:DX:SingleSpeed DX_COOLING_COIL
   **   ~~~   ** ...Gross Rated Total Cooling Capacity [W] will be limited by the maximum rated volume flow per rated total capacity ratio.
   **   ~~~   ** ...DX coil volume flow rate ( m3/s ) = 0.508414
   **   ~~~   ** ...Requested capacity ( W ) = 6441.792
   **   ~~~   ** ...Requested flow/capacity ratio ( m3/s/W ) = 7.892E-005
   **   ~~~   ** ...Maximum flow/capacity ratio ( m3/s/W ) = 6.041E-005
   **   ~~~   ** ...Adjusted capacity ( W ) = 8416.067
   ** Warning ** Coil:WaterHeating:AirToWaterHeatPump:Wrapped "HEAT PUMP WATER HEATER EVAPORATOR": Rated air volume flow rate per watt of rated total water heating capacity is out of range
   **   ~~~   ** Min Rated Vol Flow Per Watt=[4.027E-005], Rated Vol Flow Per Watt=[1.386E-004], Max Rated Vol Flow Per Watt=[8.056E-005]. See Input-Output Reference Manual for valid range.
   ** Warning ** Water heater = WATER HEATER TANK:  Recovery Efficiency and Energy Factor could not be calculated during the test for standard ratings
   **   ~~~   ** Setpoint was never recovered and/or heater never turned on
   ** Warning ** Check input. Pump nominal power or motor efficiency is set to 0, for pump=MAINS PRESSURE
   ** Warning ** Output:Meter: invalid Key Name="ELECTRIC_RANGE:INTERIOREQUIPMENT:ELECTRICITY" - not found.
   ** Warning ** Output:Meter: invalid Key Name="ELECTRIC_DRYER:INTERIOREQUIPMENT:ELECTRICITY" - not found.
   ** Warning ** Output:Meter: invalid Key Name="HEATRECOVERY:ELECTRICITY" - not found.
   ** Warning ** Output:Meter: invalid Key Name="HEATING:NATURALGAS" - not found.
   ** Warning ** Output:Meter: invalid Key Name="WATERSYSTEMS:NATURALGAS" - not found.
   ** Warning ** Output:Meter: invalid Key Name="PROPANE:FACILITY" - not found.
   ** Warning ** Output:Meter: invalid Key Name="HEATING:PROPANE" - not found.
   ************* Testing Individual Branch Integrity
   ************* All Branches passed integrity testing
   ************* Testing Individual Supply Air Path Integrity
   ************* All Supply Air Paths passed integrity testing
   ************* Testing Individual Return Air Path Integrity
   ************* All Return Air Paths passed integrity testing
   ************* No node connection errors were found.
   ************* Beginning Simulation
   ** Warning ** AirflowNetwork::Solver::validate_distribution: Heat pump water heater is simulated along with an AirflowNetwork but is not included in the AirflowNetwork.
   ** Warning ** CalcEquipmentFlowRates: "TOTAL HOT WATER LOAD" - Target water temperature is greater than the hot water temperature by (1.63 C)
   **   ~~~   **  Environment=EXTREME_WINTER, at Simulation time=12/22 06:00 - 06:15
   **   ~~~   ** ...target water temperature     = 53.33 C
   **   ~~~   ** ...hot water temperature        = 51.70 C
   **   ~~~   ** ...Target water temperature should be less than or equal to the hot water temperature. Verify temperature setpoints and schedules.
   ** Warning ** SimHVAC: Maximum iterations (20) exceeded for all HVAC loops, at ANNUAL, 02/19 13:20 - 13:25
   **   ~~~   ** The solution for one or more of the Air Loop HVAC systems did not appear to converge
   **   ~~~   ** Air System Named = CENTRAL SYSTEM did not converge for mass flow rate
   **   ~~~   ** Check values should be zero. Most Recent values listed first.
   **   ~~~   ** Demand-to-Supply interface mass flow rate check value iteration history trace: 6.515494E-002,6.515494E-002,6.515494E-002,6.515494E-002,6.515494E-002,6.515494E-002,6.515494E-002,6.515494E-002,6.515494E-002,6.515494E-002,
   **   ~~~   ** Supply-to-demand interface deck 1 mass flow rate check value iteration history trace: 6.515494E-002,6.515494E-002,6.515494E-002,6.515494E-002,6.515494E-002,6.515494E-002,6.515494E-002,6.515494E-002,6.515494E-002,6.515494E-002,
   **   ~~~   ** Air System Named = CENTRAL SYSTEM did not converge for energy
   **   ~~~   ** Check values should be zero. Most Recent values listed first.
   **   ~~~   ** Demand-to-Supply interface energy check value iteration history trace: 1280.464036,1280.464036,1280.464036,1280.464036,1280.464036,1280.464036,1280.464036,1280.464036,1280.464036,1280.464036,
   **   ~~~   ** Supply-to-demand interface deck 1 energy check value iteration history trace: 2075.888771,2075.888771,2075.888770,2075.888770,2075.888770,2075.888770,2075.888770,2075.888770,2075.888770,2075.888770,
   ** Warning ** SimHVAC: Maximum iterations (20) exceeded for all HVAC loops, at ANNUAL, 02/25 10:45 - 11:00
   **   ~~~   ** The solution for one or more of the Air Loop HVAC systems did not appear to converge
   **   ~~~   ** Air System Named = CENTRAL SYSTEM did not converge for mass flow rate
   **   ~~~   ** Check values should be zero. Most Recent values listed first.
   **   ~~~   ** Demand-to-Supply interface mass flow rate check value iteration history trace: 6.490201E-002,6.490201E-002,6.490201E-002,6.490201E-002,6.490201E-002,6.490201E-002,6.490201E-002,6.490201E-002,6.490201E-002,6.490201E-002,
   **   ~~~   ** Supply-to-demand interface deck 1 mass flow rate check value iteration history trace: 6.490201E-002,6.490201E-002,6.490201E-002,6.490201E-002,6.490201E-002,6.490201E-002,6.490201E-002,6.490201E-002,6.490201E-002,6.490201E-002,
   **   ~~~   ** Air System Named = CENTRAL SYSTEM did not converge for energy
   **   ~~~   ** Check values should be zero. Most Recent values listed first.
   **   ~~~   ** Demand-to-Supply interface energy check value iteration history trace: 1286.171327,1286.171326,1286.171326,1286.171326,1286.171326,1286.171326,1286.171326,1286.171326,1286.171326,1286.171326,
   **   ~~~   ** Supply-to-demand interface deck 1 energy check value iteration history trace: 2373.658503,2373.658503,2373.658503,2373.658503,2373.658503,2373.658503,2373.658503,2373.658503,2373.658503,2373.658503,
   ** Warning ** SimHVAC: Maximum iterations (20) exceeded for all HVAC loops, at ANNUAL, 02/26 23:15 - 23:30
   **   ~~~   ** The solution for one or more of the Air Loop HVAC systems did not appear to converge
   **   ~~~   ** Air System Named = CENTRAL SYSTEM did not converge for mass flow rate
   **   ~~~   ** Check values should be zero. Most Recent values listed first.
   **   ~~~   ** Demand-to-Supply interface mass flow rate check value iteration history trace: 4.810373E-002,4.810373E-002,4.810373E-002,4.810373E-002,4.810373E-002,4.810373E-002,4.810373E-002,4.810373E-002,4.810373E-002,4.810373E-002,
   **   ~~~   ** Supply-to-demand interface deck 1 mass flow rate check value iteration history trace: 4.810373E-002,4.810373E-002,4.810373E-002,4.810373E-002,4.810373E-002,4.810373E-002,4.810373E-002,4.810373E-002,4.810373E-002,4.810373E-002,
   **   ~~~   ** Air System Named = CENTRAL SYSTEM did not converge for energy
   **   ~~~   ** Check values should be zero. Most Recent values listed first.
   **   ~~~   ** Demand-to-Supply interface energy check value iteration history trace: 899.331437,899.331437,899.331437,899.331437,899.331437,899.331437,899.331437,899.331437,899.331437,899.331437,
   **   ~~~   ** Supply-to-demand interface deck 1 energy check value iteration history trace: 1491.352318,1491.352318,1491.352317,1491.352317,1491.352317,1491.352317,1491.352317,1491.352317,1491.352317,1491.352317,
   ** Warning ** SimHVAC: Maximum iterations (20) exceeded for all HVAC loops, at ANNUAL, 03/07 20:25 - 20:30
   **   ~~~   ** The solution for one or more of the Air Loop HVAC systems did not appear to converge
   **   ~~~   ** Air System Named = CENTRAL SYSTEM did not converge for mass flow rate
   **   ~~~   ** Check values should be zero. Most Recent values listed first.
   **   ~~~   ** Demand-to-Supply interface mass flow rate check value iteration history trace: 9.682535E-002,9.682535E-002,9.682535E-002,9.682535E-002,9.682535E-002,9.682535E-002,9.682535E-002,9.682535E-002,9.682535E-002,9.682535E-002,
   **   ~~~   ** Supply-to-demand interface deck 1 mass flow rate check value iteration history trace: 9.682535E-002,9.682535E-002,9.682535E-002,9.682535E-002,9.682535E-002,9.682535E-002,9.682535E-002,9.682535E-002,9.682535E-002,9.682535E-002,
   **   ~~~   ** Air System Named = CENTRAL SYSTEM did not converge for energy
   **   ~~~   ** Check values should be zero. Most Recent values listed first.
   **   ~~~   ** Demand-to-Supply interface energy check value iteration history trace: 1895.368402,1895.368402,1895.368402,1895.368402,1895.368402,1895.368402,1895.368402,1895.368402,1895.368402,1895.368402,
   **   ~~~   ** Supply-to-demand interface deck 1 energy check value iteration history trace: 2970.618937,2970.618937,2970.618936,2970.618936,2970.618936,2970.618936,2970.618936,2970.618936,2970.618935,2970.618935,
   ** Warning ** SimHVAC: Maximum iterations (20) exceeded for all HVAC loops, at ANNUAL, 03/11 12:05 - 12:10
   **   ~~~   ** The solution for one or more of the Air Loop HVAC systems did not appear to converge
   **   ~~~   ** Air System Named = CENTRAL SYSTEM did not converge for mass flow rate
   **   ~~~   ** Check values should be zero. Most Recent values listed first.
   **   ~~~   ** Demand-to-Supply interface mass flow rate check value iteration history trace: 5.824280E-002,5.824280E-002,5.824280E-002,5.824280E-002,5.824280E-002,5.824280E-002,5.824280E-002,5.824280E-002,5.824280E-002,5.824280E-002,
   **   ~~~   ** Supply-to-demand interface deck 1 mass flow rate check value iteration history trace: 5.824280E-002,5.824280E-002,5.824280E-002,5.824280E-002,5.824280E-002,5.824280E-002,5.824280E-002,5.824280E-002,5.824280E-002,5.824280E-002,
   **   ~~~   ** Air System Named = CENTRAL SYSTEM did not converge for energy
   **   ~~~   ** Check values should be zero. Most Recent values listed first.
   **   ~~~   ** Demand-to-Supply interface energy check value iteration history trace: 1146.309593,1146.309593,1146.309593,1146.309593,1146.309593,1146.309593,1146.309593,1146.309593,1146.309593,1146.309593,
   **   ~~~   ** Supply-to-demand interface deck 1 energy check value iteration history trace: 1937.273447,1937.273446,1937.273446,1937.273446,1937.273446,1937.273446,1937.273446,1937.273446,1937.273446,1937.273446,
   ** Warning ** SimHVAC: Maximum iterations (20) exceeded for all HVAC loops, at ANNUAL, 03/29 16:15 - 16:30
   **   ~~~   ** The solution for one or more of the Air Loop HVAC systems did not appear to converge
   **   ~~~   ** Air System Named = CENTRAL SYSTEM did not converge for mass flow rate
   **   ~~~   ** Check values should be zero. Most Recent values listed first.
   **   ~~~   ** Demand-to-Supply interface mass flow rate check value iteration history trace: 6.678533E-002,6.678533E-002,6.678533E-002,6.678533E-002,6.678533E-002,6.678533E-002,6.678533E-002,6.678533E-002,6.678533E-002,6.678533E-002,
   **   ~~~   ** Supply-to-demand interface deck 1 mass flow rate check value iteration history trace: 6.678533E-002,6.678533E-002,6.678533E-002,6.678533E-002,6.678533E-002,6.678533E-002,6.678533E-002,6.678533E-002,6.678533E-002,6.678533E-002,
   **   ~~~   ** Air System Named = CENTRAL SYSTEM did not converge for energy
   **   ~~~   ** Check values should be zero. Most Recent values listed first.
   **   ~~~   ** Demand-to-Supply interface energy check value iteration history trace: 1295.963911,1295.963911,1295.963911,1295.963911,1295.963911,1295.963911,1295.963911,1295.963911,1295.963911,1295.963911,
   **   ~~~   ** Supply-to-demand interface deck 1 energy check value iteration history trace: 2199.953866,2199.953866,2199.953866,2199.953866,2199.953866,2199.953866,2199.953865,2199.953865,2199.953865,2199.953865,
   ** Warning ** SimHVAC: Maximum iterations (20) exceeded for all HVAC loops, at ANNUAL, 04/08 09:30 - 09:35
   **   ~~~   ** The solution for one or more of the Air Loop HVAC systems did not appear to converge
   **   ~~~   ** Air System Named = CENTRAL SYSTEM did not converge for mass flow rate
   **   ~~~   ** Check values should be zero. Most Recent values listed first.
   **   ~~~   ** Demand-to-Supply interface mass flow rate check value iteration history trace: 7.152911E-002,7.152911E-002,7.152911E-002,7.152911E-002,7.152911E-002,7.152911E-002,7.152911E-002,7.152911E-002,7.152911E-002,7.152911E-002,
   **   ~~~   ** Supply-to-demand interface deck 1 mass flow rate check value iteration history trace: 7.152911E-002,7.152911E-002,7.152911E-002,7.152911E-002,7.152911E-002,7.152911E-002,7.152911E-002,7.152911E-002,7.152911E-002,7.152911E-002,
   **   ~~~   ** Air System Named = CENTRAL SYSTEM did not converge for energy
   **   ~~~   ** Check values should be zero. Most Recent values listed first.
   **   ~~~   ** Demand-to-Supply interface energy check value iteration history trace: 1413.012764,1413.012764,1413.012764,1413.012764,1413.012764,1413.012763,1413.012763,1413.012763,1413.012763,1413.012763,
   **   ~~~   ** Supply-to-demand interface deck 1 energy check value iteration history trace: 2555.076894,2555.076894,2555.076894,2555.076894,2555.076894,2555.076894,2555.076894,2555.076894,2555.076894,2555.076894,
   ** Warning ** SimHVAC: Maximum iterations (20) exceeded for all HVAC loops, at ANNUAL, 04/09 09:17 - 09:18
   **   ~~~   ** The solution for one or more of the Air Loop HVAC systems did not appear to converge
   **   ~~~   ** Air System Named = CENTRAL SYSTEM did not converge for mass flow rate
   **   ~~~   ** Check values should be zero. Most Recent values listed first.
   **   ~~~   ** Demand-to-Supply interface mass flow rate check value iteration history trace: 6.868834E-002,6.868834E-002,6.868834E-002,6.868834E-002,6.868834E-002,6.868834E-002,6.868834E-002,6.868834E-002,6.868834E-002,6.868834E-002,
   **   ~~~   ** Supply-to-demand interface deck 1 mass flow rate check value iteration history trace: 6.868834E-002,6.868834E-002,6.868834E-002,6.868834E-002,6.868834E-002,6.868834E-002,6.868834E-002,6.868834E-002,6.868834E-002,6.868834E-002,
   **   ~~~   ** Air System Named = CENTRAL SYSTEM did not converge for energy
   **   ~~~   ** Check values should be zero. Most Recent values listed first.
   **   ~~~   ** Demand-to-Supply interface energy check value iteration history trace: 1356.995213,1356.995213,1356.995213,1356.995213,1356.995213,1356.995213,1356.995213,1356.995213,1356.995212,1356.995212,
   **   ~~~   ** Supply-to-demand interface deck 1 energy check value iteration history trace: 2566.309718,2566.309718,2566.309718,2566.309718,2566.309718,2566.309717,2566.309717,2566.309717,2566.309717,2566.309717,
   ** Warning ** SimHVAC: Maximum iterations (20) exceeded for all HVAC loops, at ANNUAL, 04/23 11:45 - 12:00
   **   ~~~   ** The solution for one or more of the Air Loop HVAC systems did not appear to converge
   **   ~~~   ** Air System Named = CENTRAL SYSTEM did not converge for mass flow rate
   **   ~~~   ** Check values should be zero. Most Recent values listed first.
   **   ~~~   ** Demand-to-Supply interface mass flow rate check value iteration history trace: 6.507196E-002,6.507196E-002,6.507196E-002,6.507196E-002,6.507196E-002,6.507196E-002,6.507196E-002,6.507196E-002,6.507196E-002,6.507196E-002,
   **   ~~~   ** Supply-to-demand interface deck 1 mass flow rate check value iteration history trace: 6.507196E-002,6.507196E-002,6.507196E-002,6.507196E-002,6.507196E-002,6.507196E-002,6.507196E-002,6.507196E-002,6.507196E-002,6.507196E-002,
   **   ~~~   ** Air System Named = CENTRAL SYSTEM did not converge for energy
   **   ~~~   ** Check values should be zero. Most Recent values listed first.
   **   ~~~   ** Demand-to-Supply interface energy check value iteration history trace: 1289.499956,1289.499956,1289.499956,1289.499956,1289.499956,1289.499956,1289.499956,1289.499956,1289.499956,1289.499956,
   **   ~~~   ** Supply-to-demand interface deck 1 energy check value iteration history trace: 2331.636844,2331.636844,2331.636844,2331.636844,2331.636844,2331.636844,2331.636844,2331.636844,2331.636844,2331.636844,
   ** Warning ** SimHVAC: Maximum iterations (20) exceeded for all HVAC loops, at ANNUAL, 06/01 08:00 - 08:15
   **   ~~~   ** The solution for one or more of the Air Loop HVAC systems did not appear to converge
   **   ~~~   ** Air System Named = CENTRAL SYSTEM did not converge for mass flow rate
   **   ~~~   ** Check values should be zero. Most Recent values listed first.
   **   ~~~   ** Demand-to-Supply interface mass flow rate check value iteration history trace: 0.118660,0.118660,0.118660,0.118660,0.118660,0.118660,0.118660,0.118660,0.118660,0.118660,
   **   ~~~   ** Supply-to-demand interface deck 1 mass flow rate check value iteration history trace: 0.118660,0.118660,0.118660,0.118660,0.118660,0.118660,0.118660,0.118660,0.118660,0.118660,
   **   ~~~   ** Air System Named = CENTRAL SYSTEM did not converge for energy
   **   ~~~   ** Check values should be zero. Most Recent values listed first.
   **   ~~~   ** Demand-to-Supply interface energy check value iteration history trace: 2813.457168,2813.457168,2813.457169,2813.457169,2813.457170,2813.457170,2813.457171,2813.457171,2813.457172,2813.457172,
   **   ~~~   ** Supply-to-demand interface deck 1 energy check value iteration history trace: 1211.273945,1211.273945,1211.273946,1211.273946,1211.273946,1211.273946,1211.273946,1211.273947,1211.273947,1211.273947,
   ** Warning ** SimHVAC: Maximum iterations (20) exceeded for all HVAC loops, at ANNUAL, 10/07 18:55 - 19:00
   **   ~~~   ** The solution for one or more of the Air Loop HVAC systems did not appear to converge
   **   ~~~   ** Air System Named = CENTRAL SYSTEM did not converge for mass flow rate
   **   ~~~   ** Check values should be zero. Most Recent values listed first.
   **   ~~~   ** Demand-to-Supply interface mass flow rate check value iteration history trace: 9.820279E-002,9.820279E-002,9.820279E-002,9.820279E-002,9.820279E-002,9.820279E-002,9.820279E-002,9.820279E-002,9.820279E-002,9.820279E-002,
   **   ~~~   ** Supply-to-demand interface deck 1 mass flow rate check value iteration history trace: 9.820279E-002,9.820279E-002,9.820279E-002,9.820279E-002,9.820279E-002,9.820279E-002,9.820279E-002,9.820279E-002,9.820279E-002,9.820279E-002,
   **   ~~~   ** Air System Named = CENTRAL SYSTEM did not converge for energy
   **   ~~~   ** Check values should be zero. Most Recent values listed first.
   **   ~~~   ** Demand-to-Supply interface energy check value iteration history trace: 1945.745371,1945.745371,1945.745371,1945.745371,1945.745371,1945.745370,1945.745370,1945.745370,1945.745370,1945.745370,
   **   ~~~   ** Supply-to-demand interface deck 1 energy check value iteration history trace: 3047.302601,3047.302601,3047.302601,3047.302600,3047.302600,3047.302600,3047.302600,3047.302600,3047.302599,3047.302599,
   ** Warning ** SimHVAC: Maximum iterations (20) exceeded for all HVAC loops, at ANNUAL, 10/17 07:08 - 07:15
   **   ~~~   ** The solution for one or more of the Air Loop HVAC systems did not appear to converge
   **   ~~~   ** Air System Named = CENTRAL SYSTEM did not converge for mass flow rate
   **   ~~~   ** Check values should be zero. Most Recent values listed first.
   **   ~~~   ** Demand-to-Supply interface mass flow rate check value iteration history trace: 5.792739E-002,5.792739E-002,5.792739E-002,5.792739E-002,5.792739E-002,5.792739E-002,5.792739E-002,5.792739E-002,5.792739E-002,5.792739E-002,
   **   ~~~   ** Supply-to-demand interface deck 1 mass flow rate check value iteration history trace: 5.792739E-002,5.792739E-002,5.792739E-002,5.792739E-002,5.792739E-002,5.792739E-002,5.792739E-002,5.792739E-002,5.792739E-002,5.792739E-002,
   **   ~~~   ** Air System Named = CENTRAL SYSTEM did not converge for energy
   **   ~~~   ** Check values should be zero. Most Recent values listed first.
   **   ~~~   ** Demand-to-Supply interface energy check value iteration history trace: 1128.286946,1128.286946,1128.286946,1128.286946,1128.286946,1128.286946,1128.286946,1128.286946,1128.286946,1128.286946,
   **   ~~~   ** Supply-to-demand interface deck 1 energy check value iteration history trace: 2119.257511,2119.257510,2119.257510,2119.257510,2119.257510,2119.257510,2119.257510,2119.257510,2119.257510,2119.257510,
   ** Warning ** Temperature out of range [-100. to 200.] (PsyPsatFnTemp)
   **   ~~~   **  Routine=PsyTwbFnTdbWPb, Environment=ANNUAL, at Simulation time=11/01 18:45 - 19:00
   **   ~~~   **  Input Temperature=-158.59
   ** Warning ** SimHVAC: Maximum iterations (20) exceeded for all HVAC loops, at ANNUAL, 11/07 09:30 - 09:45
   **   ~~~   ** The solution for one or more of the Air Loop HVAC systems did not appear to converge
   **   ~~~   ** Air System Named = CENTRAL SYSTEM did not converge for mass flow rate
   **   ~~~   ** Check values should be zero. Most Recent values listed first.
   **   ~~~   ** Demand-to-Supply interface mass flow rate check value iteration history trace: 4.127206E-002,4.127206E-002,4.127206E-002,4.127206E-002,4.127206E-002,4.127206E-002,4.127206E-002,4.127206E-002,4.127206E-002,4.127206E-002,
   **   ~~~   ** Supply-to-demand interface deck 1 mass flow rate check value iteration history trace: 4.127206E-002,4.127206E-002,4.127206E-002,4.127206E-002,4.127206E-002,4.127206E-002,4.127206E-002,4.127206E-002,4.127206E-002,4.127206E-002,
   **   ~~~   ** Air System Named = CENTRAL SYSTEM did not converge for energy
   **   ~~~   ** Check values should be zero. Most Recent values listed first.
   **   ~~~   ** Demand-to-Supply interface energy check value iteration history trace: 817.881862,817.881862,817.881862,817.881861,817.881861,817.881861,817.881861,817.881861,817.881861,817.881861,
   **   ~~~   ** Supply-to-demand interface deck 1 energy check value iteration history trace: 1339.781083,1339.781083,1339.781083,1339.781083,1339.781083,1339.781083,1339.781083,1339.781083,1339.781083,1339.781083,
   ** Warning ** SimHVAC: Maximum iterations (20) exceeded for all HVAC loops, at ANNUAL, 12/09 11:34 - 11:38
   **   ~~~   ** The solution for one or more of the Air Loop HVAC systems did not appear to converge
   **   ~~~   ** Air System Named = CENTRAL SYSTEM did not converge for mass flow rate
   **   ~~~   ** Check values should be zero. Most Recent values listed first.
   **   ~~~   ** Demand-to-Supply interface mass flow rate check value iteration history trace: 6.837093E-002,6.837093E-002,6.837093E-002,6.837093E-002,6.837093E-002,6.837093E-002,6.837093E-002,6.837093E-002,6.837093E-002,6.837093E-002,
   **   ~~~   ** Supply-to-demand interface deck 1 mass flow rate check value iteration history trace: 6.837093E-002,6.837093E-002,6.837093E-002,6.837093E-002,6.837093E-002,6.837093E-002,6.837093E-002,6.837093E-002,6.837093E-002,6.837093E-002,
   **   ~~~   ** Air System Named = CENTRAL SYSTEM did not converge for energy
   **   ~~~   ** Check values should be zero. Most Recent values listed first.
   **   ~~~   ** Demand-to-Supply interface energy check value iteration history trace: 1354.955708,1354.955708,1354.955708,1354.955708,1354.955708,1354.955708,1354.955708,1354.955708,1354.955708,1354.955708,
   **   ~~~   ** Supply-to-demand interface deck 1 energy check value iteration history trace: 2204.342040,2204.342040,2204.342040,2204.342040,2204.342040,2204.342040,2204.342040,2204.342040,2204.342040,2204.342039,
   ************* Simulation Error Summary *************
   ** Warning ** The following Report Variables were requested but not generated -- check.rdd file
   **   ~~~   ** Either the IDF did not contain these elements, the variable name is misspelled,
   **   ~~~   ** or the requested variable is an advanced output which requires Output : Diagnostics, DisplayAdvancedReportVariables;
   ************* Key=*, VarName=BASEBOARD TOTAL HEATING ENERGY, Frequency=
   ************* Key=*, VarName=WATER HEATER NATURALGAS ENERGY, Frequency=
   ************* Key=*, VarName=COOLING COIL TOTAL HEATING ENERGY, Frequency=
   ************* There are 34 unused schedules in input.
   ************* There are 388 unused week schedules in input.
   ************* There are 396 unused day schedules in input.
   ************* Use Output:Diagnostics,DisplayUnusedSchedules; to see them.
   *************
   ************* ===== Recurring Error Summary =====
   ************* The following recurring error messages occurred.
   *************
   *************  ** Warning ** "TOTAL HOT WATER LOAD" - Target water temperature should be less than or equal to the hot water temperature error continues...
   *************  **   ~~~   **   This error occurred 141385 total times;
   *************  **   ~~~   **   during Warmup 0 times;
   *************  **   ~~~   **   during Sizing 0 times.
   *************  **   ~~~   **   Max=11.480143  Min=9.812311E-005
   *************
   *************  ** Warning ** Temperature out of range [-100. to 200.] (PsyPsatFnTemp)
   *************  **   ~~~   **   This error occurred 1 total times;
   *************  **   ~~~   **   during Warmup 0 times;
   *************  **   ~~~   **   during Sizing 0 times.
   *************  **   ~~~   **   Max=-158.59465 C  Min=-158.59465 C
   *************
   *************  ** Warning ** SimHVAC: Exceeding Maximum iterations for all HVAC loops, during ANNUAL continues
   *************  **   ~~~   **   This error occurred 1 total times;
   *************  **   ~~~   **   during Warmup 0 times;
   *************  **   ~~~   **   during Sizing 0 times.
   *************
   *************
   ************* ===== Final Error Summary =====
   ************* The following error categories occurred.  Consider correcting or noting.
   ************* Nominally Unused Constructions
   ************* ..The nominally unused constructions warning is provided to alert you to potential conditions that can cause
   ************* ..extra time during simulation. Each construction is calculated by the algorithm indicated in the HeatBalanceAlgorithm
   ************* ..object. You may remove the constructions indicated (when you use the DisplayExtraWarnings option).
   *************
   ************* EnergyPlus Warmup Error Summary. During Warmup: 1 Warning; 0 Severe Errors.
   ************* EnergyPlus Sizing Error Summary. During Sizing: 4 Warning; 0 Severe Errors.
   ************* EnergyPlus Completed Successfully-- 141419 Warning; 0 Severe Errors; Elapsed Time=00hr 06min 25.49sec
