Program Version,EnergyPlus, Version 22.2.0-c249759bad, YMD=2023.09.01 20:12,
   ************* Beginning Zone Sizing Calculations
   ** Warning ** ProcessScheduleInput: Schedule:Constant="ALWAYS ON DISCRETE", Schedule Type Limits Name="ONOFF" not found -- will not be validated
   ** Warning ** Foundation:Kiva="KIVA FOUNDATION", no Interior Horizontal Insulation Material Name defined
   **   ~~~   ** Interior Horizontal Insulation Depth will not be used.
   ** Warning ** CheckUsedConstructions: There are 15 nominally unused constructions in input.
   **   ~~~   ** Each Unused construction is shown.
   ************* Construction=INTERIOR FLOOR
   ************* Construction=INTERIOR WINDOW
   ************* Construction=EXTERIOR DOOR
   ************* Construction=INTERIOR DOOR
   ************* Construction=GABLE CONSTRUCTION
   ************* Construction=CRAWL_FLOOR
   ************* Construction=INSULATED PIPE
   ************* Construction=PLAIN PIPE
   ************* Construction=TDD PIPE
   ************* Construction=TDD DOME
   ************* Construction=TDD DIFFUSER
   ************* Construction=CRAWL WALL
   ************* Construction=CEILING-FLOOR-LAYER
   ************* Construction=SLAB CONSTRUCTION W FULL R10 INSULATION
   ************* Construction=SLAB CONSTRUCTION W FULL R5 INSULATION
   ** Warning ** GetDXCoils: Coil:Heating:DX:SingleSpeed="DX_HEATING_COIL" curve values
   **   ~~~   ** ... Defrost Energy Input Ratio Function of Temperature Curve Name = DEFROSTEIR output is not equal to 1.0 (+ or - 10%) at rated conditions.
   **   ~~~   ** ... Curve output at rated conditions = 0.152
   ************* Beginning System Sizing Calculations
   ************* Beginning Plant Sizing Calculations
   ** Warning ** SizeDXCoil Coil:Cooling:DX:SingleSpeed DX_COOLING_COIL
   **   ~~~   ** ...Gross Rated Total Cooling Capacity [W] will be limited by the maximum rated volume flow per rated total capacity ratio.
   **   ~~~   ** ...DX coil volume flow rate ( m3/s ) = 0.496982
   **   ~~~   ** ...Requested capacity ( W ) = 8122.420
   **   ~~~   ** ...Requested flow/capacity ratio ( m3/s/W ) = 6.118E-005
   **   ~~~   ** ...Maximum flow/capacity ratio ( m3/s/W ) = 6.041E-005
   **   ~~~   ** ...Adjusted capacity ( W ) = 8226.826
   ** Warning ** Coil:WaterHeating:AirToWaterHeatPump:Wrapped "HEAT PUMP WATER HEATER EVAPORATOR": Rated air volume flow rate per watt of rated total water heating capacity is out of range
   **   ~~~   ** Min Rated Vol Flow Per Watt=[4.027E-005], Rated Vol Flow Per Watt=[1.510E-004], Max Rated Vol Flow Per Watt=[8.056E-005]. See Input-Output Reference Manual for valid range.
   ************* SizeFan: : Potential issue with equipment sizing for Fan:OnOff HEAT PUMP WATER HEATER FAN
   **   ~~~   ** User-Specified Maximum Flow Rate [m3/s] = 0.22653
   **   ~~~   ** differs from Design Size Maximum Flow Rate [m3/s] = 7.55250E-002
   **   ~~~   ** This may, or may not, indicate mismatched component sizes.
   **   ~~~   ** Verify that the value entered is intended and is consistent with other components.
   ** Warning ** Water heater = WATER HEATER TANK:  Recovery Efficiency and Energy Factor could not be calculated during the test for standard ratings
   **   ~~~   ** Setpoint was never recovered and/or heater never turned on
   ** Warning ** Check input. Pump nominal power or motor efficiency is set to 0, for pump=MAINS PRESSURE
   ** Warning ** AirflowNetwork::Solver::validate_distribution: Heat pump water heater is simulated along with an AirflowNetwork but is not included in the AirflowNetwork.
   ** Warning ** Output:Meter: invalid Key Name="ELECTRIC_RANGE:INTERIOREQUIPMENT:ELECTRICITY" - not found.
   ** Warning ** Output:Meter: invalid Key Name="ELECTRIC_DRYER:INTERIOREQUIPMENT:ELECTRICITY" - not found.
   ** Warning ** Output:Meter: invalid Key Name="HEATRECOVERY:ELECTRICITY" - not found.
   ** Warning ** Output:Meter: invalid Key Name="HEATING:NATURALGAS" - not found.
   ** Warning ** Output:Meter: invalid Key Name="WATERSYSTEMS:NATURALGAS" - not found.
   ** Warning ** Output:Meter: invalid Key Name="PROPANE:FACILITY" - not found.
   ** Warning ** Output:Meter: invalid Key Name="HEATING:PROPANE" - not found.
   ************* Testing Individual Branch Integrity
   ************* All Branches passed integrity testing
   ************* Testing Individual Supply Air Path Integrity
   ************* All Supply Air Paths passed integrity testing
   ************* Testing Individual Return Air Path Integrity
   ************* All Return Air Paths passed integrity testing
   ************* No node connection errors were found.
   ************* Beginning Simulation
   ** Warning ** CalcEquipmentFlowRates: "TOTAL HOT WATER LOAD" - Target water temperature is greater than the hot water temperature by (4.65 C)
   **   ~~~   **  Environment=EXTREME_WINTER, at Simulation time=01/29 07:00 - 07:15
   **   ~~~   ** ...target water temperature     = 53.33 C
   **   ~~~   ** ...hot water temperature        = 48.69 C
   **   ~~~   ** ...Target water temperature should be less than or equal to the hot water temperature. Verify temperature setpoints and schedules.
   ** Warning ** SimHVAC: Maximum iterations (20) exceeded for all HVAC loops, at ANNUAL, 01/02 12:45 - 12:52
   **   ~~~   ** The solution for one or more of the Air Loop HVAC systems did not appear to converge
   **   ~~~   ** Air System Named = CENTRAL SYSTEM did not converge for mass flow rate
   **   ~~~   ** Check values should be zero. Most Recent values listed first.
   **   ~~~   ** Demand-to-Supply interface mass flow rate check value iteration history trace: 1.845043E-002,1.845043E-002,1.845043E-002,1.845043E-002,1.845043E-002,1.845043E-002,1.845043E-002,1.845043E-002,1.845043E-002,1.845043E-002,
   **   ~~~   ** Supply-to-demand interface deck 1 mass flow rate check value iteration history trace: 1.845043E-002,1.845043E-002,1.845043E-002,1.845043E-002,1.845043E-002,1.845043E-002,1.845043E-002,1.845043E-002,1.845043E-002,1.845043E-002,
   **   ~~~   ** Air System Named = CENTRAL SYSTEM did not converge for energy
   **   ~~~   ** Check values should be zero. Most Recent values listed first.
   **   ~~~   ** Demand-to-Supply interface energy check value iteration history trace: 365.623354,365.623354,365.623354,365.623354,365.623354,365.623354,365.623354,365.623354,365.623354,365.623354,
   **   ~~~   ** Supply-to-demand interface deck 1 energy check value iteration history trace: 624.198946,624.198946,624.198946,624.198946,624.198946,624.198946,624.198946,624.198946,624.198945,624.198945,
   ** Warning ** SimHVAC: Maximum iterations (20) exceeded for all HVAC loops, at ANNUAL, 01/02 18:05 - 18:10
   **   ~~~   ** The solution for one or more of the Air Loop HVAC systems did not appear to converge
   **   ~~~   ** Air System Named = CENTRAL SYSTEM did not converge for mass flow rate
   **   ~~~   ** Check values should be zero. Most Recent values listed first.
   **   ~~~   ** Demand-to-Supply interface mass flow rate check value iteration history trace: 2.208964E-002,2.208964E-002,2.208964E-002,2.208964E-002,2.208964E-002,2.208964E-002,2.208964E-002,2.208964E-002,2.208964E-002,2.208964E-002,
   **   ~~~   ** Supply-to-demand interface deck 1 mass flow rate check value iteration history trace: 2.208964E-002,2.208964E-002,2.208964E-002,2.208964E-002,2.208964E-002,2.208964E-002,2.208964E-002,2.208964E-002,2.208964E-002,2.208964E-002,
   **   ~~~   ** Air System Named = CENTRAL SYSTEM did not converge for energy
   **   ~~~   ** Check values should be zero. Most Recent values listed first.
   **   ~~~   ** Demand-to-Supply interface energy check value iteration history trace: 435.127011,435.127011,435.127011,435.127011,435.127011,435.127011,435.127011,435.127011,435.127011,435.127011,
   **   ~~~   ** Supply-to-demand interface deck 1 energy check value iteration history trace: 743.793017,743.793017,743.793017,743.793017,743.793017,743.793017,743.793017,743.793017,743.793017,743.793017,
   ** Warning ** SimHVAC: Maximum iterations (20) exceeded for all HVAC loops, at ANNUAL, 01/03 17:45 - 17:52
   **   ~~~   ** The solution for one or more of the Air Loop HVAC systems did not appear to converge
   **   ~~~   ** Air System Named = CENTRAL SYSTEM did not converge for mass flow rate
   **   ~~~   ** Check values should be zero. Most Recent values listed first.
   **   ~~~   ** Demand-to-Supply interface mass flow rate check value iteration history trace: 6.610113E-002,6.610113E-002,6.610113E-002,6.610113E-002,6.610113E-002,6.610113E-002,6.610113E-002,6.610113E-002,6.610113E-002,6.610113E-002,
   **   ~~~   ** Supply-to-demand interface deck 1 mass flow rate check value iteration history trace: 6.610113E-002,6.610113E-002,6.610113E-002,6.610113E-002,6.610113E-002,6.610113E-002,6.610113E-002,6.610113E-002,6.610113E-002,6.610113E-002,
   **   ~~~   ** Air System Named = CENTRAL SYSTEM did not converge for energy
   **   ~~~   ** Check values should be zero. Most Recent values listed first.
   **   ~~~   ** Demand-to-Supply interface energy check value iteration history trace: 1308.315118,1308.315118,1308.315118,1308.315118,1308.315118,1308.315118,1308.315118,1308.315118,1308.315118,1308.315118,
   **   ~~~   ** Supply-to-demand interface deck 1 energy check value iteration history trace: 2234.390006,2234.390006,2234.390006,2234.390005,2234.390005,2234.390005,2234.390005,2234.390005,2234.390005,2234.390005,
   ** Warning ** SimHVAC: Maximum iterations (20) exceeded for all HVAC loops, at ANNUAL, 01/06 09:32 - 09:34
   **   ~~~   ** The solution for one or more of the Air Loop HVAC systems did not appear to converge
   **   ~~~   ** Air System Named = CENTRAL SYSTEM did not converge for mass flow rate
   **   ~~~   ** Check values should be zero. Most Recent values listed first.
   **   ~~~   ** Demand-to-Supply interface mass flow rate check value iteration history trace: 6.879617E-002,6.879617E-002,6.879617E-002,6.879617E-002,6.879617E-002,6.879617E-002,6.879617E-002,6.879617E-002,6.879617E-002,6.879617E-002,
   **   ~~~   ** Supply-to-demand interface deck 1 mass flow rate check value iteration history trace: 6.879617E-002,6.879617E-002,6.879617E-002,6.879617E-002,6.879617E-002,6.879617E-002,6.879617E-002,6.879617E-002,6.879617E-002,6.879617E-002,
   **   ~~~   ** Air System Named = CENTRAL SYSTEM did not converge for energy
   **   ~~~   ** Check values should be zero. Most Recent values listed first.
   **   ~~~   ** Demand-to-Supply interface energy check value iteration history trace: 1359.662815,1359.662815,1359.662815,1359.662815,1359.662814,1359.662814,1359.662814,1359.662814,1359.662814,1359.662814,
   **   ~~~   ** Supply-to-demand interface deck 1 energy check value iteration history trace: 2413.132702,2413.132702,2413.132702,2413.132702,2413.132702,2413.132702,2413.132702,2413.132702,2413.132702,2413.132701,
   ** Warning ** SimHVAC: Maximum iterations (20) exceeded for all HVAC loops, at ANNUAL, 01/07 09:45 - 10:00
   **   ~~~   ** The solution for one or more of the Air Loop HVAC systems did not appear to converge
   **   ~~~   ** Air System Named = CENTRAL SYSTEM did not converge for mass flow rate
   **   ~~~   ** Check values should be zero. Most Recent values listed first.
   **   ~~~   ** Demand-to-Supply interface mass flow rate check value iteration history trace: 6.793455E-002,6.793455E-002,6.793455E-002,6.793455E-002,6.793455E-002,6.793455E-002,6.793455E-002,6.793455E-002,6.793455E-002,6.793455E-002,
   **   ~~~   ** Supply-to-demand interface deck 1 mass flow rate check value iteration history trace: 6.793455E-002,6.793455E-002,6.793455E-002,6.793455E-002,6.793455E-002,6.793455E-002,6.793455E-002,6.793455E-002,6.793455E-002,6.793455E-002,
   **   ~~~   ** Air System Named = CENTRAL SYSTEM did not converge for energy
   **   ~~~   ** Check values should be zero. Most Recent values listed first.
   **   ~~~   ** Demand-to-Supply interface energy check value iteration history trace: 1339.221379,1339.221379,1339.221379,1339.221378,1339.221378,1339.221378,1339.221378,1339.221378,1339.221378,1339.221378,
   **   ~~~   ** Supply-to-demand interface deck 1 energy check value iteration history trace: 2316.095455,2316.095455,2316.095455,2316.095455,2316.095455,2316.095455,2316.095454,2316.095454,2316.095454,2316.095454,
   ** Warning ** SimHVAC: Maximum iterations (20) exceeded for all HVAC loops, at ANNUAL, 02/06 09:00 - 09:02
   **   ~~~   ** The solution for one or more of the Air Loop HVAC systems did not appear to converge
   **   ~~~   ** Air System Named = CENTRAL SYSTEM did not converge for mass flow rate
   **   ~~~   ** Check values should be zero. Most Recent values listed first.
   **   ~~~   ** Demand-to-Supply interface mass flow rate check value iteration history trace: 7.468011E-002,7.468011E-002,7.468011E-002,7.468011E-002,7.468011E-002,7.468011E-002,7.468011E-002,7.468011E-002,7.468011E-002,7.468011E-002,
   **   ~~~   ** Supply-to-demand interface deck 1 mass flow rate check value iteration history trace: 7.468011E-002,7.468011E-002,7.468011E-002,7.468011E-002,7.468011E-002,7.468011E-002,7.468011E-002,7.468011E-002,7.468011E-002,7.468011E-002,
   **   ~~~   ** Air System Named = CENTRAL SYSTEM did not converge for energy
   **   ~~~   ** Check values should be zero. Most Recent values listed first.
   **   ~~~   ** Demand-to-Supply interface energy check value iteration history trace: 1474.764632,1474.764632,1474.764632,1474.764632,1474.764632,1474.764632,1474.764632,1474.764632,1474.764632,1474.764632,
   **   ~~~   ** Supply-to-demand interface deck 1 energy check value iteration history trace: 2571.489567,2571.489567,2571.489567,2571.489566,2571.489566,2571.489566,2571.489566,2571.489566,2571.489566,2571.489566,
   ** Warning ** SimHVAC: Maximum iterations (20) exceeded for all HVAC loops, at ANNUAL, 02/10 10:30 - 10:45
   **   ~~~   ** The solution for one or more of the Air Loop HVAC systems did not appear to converge
   **   ~~~   ** Air System Named = CENTRAL SYSTEM did not converge for mass flow rate
   **   ~~~   ** Check values should be zero. Most Recent values listed first.
   **   ~~~   ** Demand-to-Supply interface mass flow rate check value iteration history trace: 8.760517E-002,8.760517E-002,8.760517E-002,8.760517E-002,8.760517E-002,8.760517E-002,8.760517E-002,8.760517E-002,8.760517E-002,8.760517E-002,
   **   ~~~   ** Supply-to-demand interface deck 1 mass flow rate check value iteration history trace: 8.760517E-002,8.760517E-002,8.760517E-002,8.760517E-002,8.760517E-002,8.760517E-002,8.760517E-002,8.760517E-002,8.760517E-002,8.760517E-002,
   **   ~~~   ** Air System Named = CENTRAL SYSTEM did not converge for energy
   **   ~~~   ** Check values should be zero. Most Recent values listed first.
   **   ~~~   ** Demand-to-Supply interface energy check value iteration history trace: 1736.074131,1736.074131,1736.074130,1736.074130,1736.074130,1736.074130,1736.074130,1736.074130,1736.074130,1736.074130,
   **   ~~~   ** Supply-to-demand interface deck 1 energy check value iteration history trace: 2695.445171,2695.445171,2695.445171,2695.445171,2695.445171,2695.445170,2695.445170,2695.445170,2695.445170,2695.445170,
   ** Warning ** SimHVAC: Maximum iterations (20) exceeded for all HVAC loops, at ANNUAL, 02/10 12:03 - 12:06
   **   ~~~   ** The solution for one or more of the Air Loop HVAC systems did not appear to converge
   **   ~~~   ** Air System Named = CENTRAL SYSTEM did not converge for mass flow rate
   **   ~~~   ** Check values should be zero. Most Recent values listed first.
   **   ~~~   ** Demand-to-Supply interface mass flow rate check value iteration history trace: 7.227079E-002,7.227079E-002,7.227079E-002,7.227079E-002,7.227079E-002,7.227079E-002,7.227079E-002,7.227079E-002,7.227079E-002,7.227079E-002,
   **   ~~~   ** Supply-to-demand interface deck 1 mass flow rate check value iteration history trace: 7.227079E-002,7.227079E-002,7.227079E-002,7.227079E-002,7.227079E-002,7.227079E-002,7.227079E-002,7.227079E-002,7.227079E-002,7.227079E-002,
   **   ~~~   ** Air System Named = CENTRAL SYSTEM did not converge for energy
   **   ~~~   ** Check values should be zero. Most Recent values listed first.
   **   ~~~   ** Demand-to-Supply interface energy check value iteration history trace: 1426.059332,1426.059332,1426.059332,1426.059332,1426.059332,1426.059332,1426.059332,1426.059332,1426.059332,1426.059331,
   **   ~~~   ** Supply-to-demand interface deck 1 energy check value iteration history trace: 2237.567284,2237.567284,2237.567284,2237.567284,2237.567283,2237.567283,2237.567283,2237.567283,2237.567283,2237.567283,
   ** Warning ** SimHVAC: Maximum iterations (20) exceeded for all HVAC loops, at ANNUAL, 03/05 07:55 - 08:00
   **   ~~~   ** The solution for one or more of the Air Loop HVAC systems did not appear to converge
   **   ~~~   ** Air System Named = CENTRAL SYSTEM did not converge for mass flow rate
   **   ~~~   ** Check values should be zero. Most Recent values listed first.
   **   ~~~   ** Demand-to-Supply interface mass flow rate check value iteration history trace: 0.250089,0.250089,0.250089,0.250089,0.250089,0.250089,0.250089,0.250089,0.250089,0.250089,
   **   ~~~   ** Supply-to-demand interface deck 1 mass flow rate check value iteration history trace: 0.250089,0.250089,0.250089,0.250089,0.250089,0.250089,0.250089,0.250089,0.250089,0.250089,
   **   ~~~   ** Air System Named = CENTRAL SYSTEM did not converge for energy
   **   ~~~   ** Check values should be zero. Most Recent values listed first.
   **   ~~~   ** Demand-to-Supply interface energy check value iteration history trace: 5940.429763,5940.429763,5940.429764,5940.429764,5940.429765,5940.429765,5940.429766,5940.429766,5940.429767,5940.429767,
   **   ~~~   ** Supply-to-demand interface deck 1 energy check value iteration history trace: 3399.120026,3399.120026,3399.120027,3399.120027,3399.120027,3399.120028,3399.120028,3399.120028,3399.120028,3399.120029,
   ** Warning ** SimHVAC: Maximum iterations (20) exceeded for all HVAC loops, at ANNUAL, 03/05 22:45 - 23:00
   **   ~~~   ** The solution for one or more of the Air Loop HVAC systems did not appear to converge
   **   ~~~   ** Air System Named = CENTRAL SYSTEM did not converge for mass flow rate
   **   ~~~   ** Check values should be zero. Most Recent values listed first.
   **   ~~~   ** Demand-to-Supply interface mass flow rate check value iteration history trace: 9.253780E-002,9.253780E-002,9.253780E-002,9.253780E-002,9.253780E-002,9.253780E-002,9.253780E-002,9.253780E-002,9.253780E-002,9.253780E-002,
   **   ~~~   ** Supply-to-demand interface deck 1 mass flow rate check value iteration history trace: 9.253780E-002,9.253780E-002,9.253780E-002,9.253780E-002,9.253780E-002,9.253780E-002,9.253780E-002,9.253780E-002,9.253780E-002,9.253780E-002,
   **   ~~~   ** Air System Named = CENTRAL SYSTEM did not converge for energy
   **   ~~~   ** Check values should be zero. Most Recent values listed first.
   **   ~~~   ** Demand-to-Supply interface energy check value iteration history trace: 2289.119326,2289.119326,2289.119327,2289.119327,2289.119327,2289.119327,2289.119327,2289.119328,2289.119328,2289.119328,
   **   ~~~   ** Supply-to-demand interface deck 1 energy check value iteration history trace: 1227.806971,1227.806971,1227.806972,1227.806972,1227.806972,1227.806972,1227.806972,1227.806972,1227.806972,1227.806972,
   ** Warning ** SimHVAC: Maximum iterations (20) exceeded for all HVAC loops, at ANNUAL, 03/11 22:30 - 22:45
   **   ~~~   ** The solution for one or more of the Air Loop HVAC systems did not appear to converge
   **   ~~~   ** Air System Named = CENTRAL SYSTEM did not converge for mass flow rate
   **   ~~~   ** Check values should be zero. Most Recent values listed first.
   **   ~~~   ** Demand-to-Supply interface mass flow rate check value iteration history trace: 5.863057E-002,5.863057E-002,5.863057E-002,5.863057E-002,5.863057E-002,5.863057E-002,5.863057E-002,5.863057E-002,5.863057E-002,5.863057E-002,
   **   ~~~   ** Supply-to-demand interface deck 1 mass flow rate check value iteration history trace: 5.863057E-002,5.863057E-002,5.863057E-002,5.863057E-002,5.863057E-002,5.863057E-002,5.863057E-002,5.863057E-002,5.863057E-002,5.863057E-002,
   **   ~~~   ** Air System Named = CENTRAL SYSTEM did not converge for energy
   **   ~~~   ** Check values should be zero. Most Recent values listed first.
   **   ~~~   ** Demand-to-Supply interface energy check value iteration history trace: 1084.209763,1084.209763,1084.209763,1084.209763,1084.209763,1084.209763,1084.209762,1084.209762,1084.209762,1084.209762,
   **   ~~~   ** Supply-to-demand interface deck 1 energy check value iteration history trace: 1903.914326,1903.914326,1903.914326,1903.914326,1903.914326,1903.914326,1903.914326,1903.914326,1903.914326,1903.914326,
   ** Warning ** SimHVAC: Maximum iterations (20) exceeded for all HVAC loops, at ANNUAL, 03/13 17:00 - 17:08
   **   ~~~   ** The solution for one or more of the Air Loop HVAC systems did not appear to converge
   **   ~~~   ** Air System Named = CENTRAL SYSTEM did not converge for mass flow rate
   **   ~~~   ** Check values should be zero. Most Recent values listed first.
   **   ~~~   ** Demand-to-Supply interface mass flow rate check value iteration history trace: 6.326898E-002,6.326898E-002,6.326898E-002,6.326898E-002,6.326898E-002,6.326898E-002,6.326898E-002,6.326898E-002,6.326898E-002,6.326898E-002,
   **   ~~~   ** Supply-to-demand interface deck 1 mass flow rate check value iteration history trace: 6.326898E-002,6.326898E-002,6.326898E-002,6.326898E-002,6.326898E-002,6.326898E-002,6.326898E-002,6.326898E-002,6.326898E-002,6.326898E-002,
   **   ~~~   ** Air System Named = CENTRAL SYSTEM did not converge for energy
   **   ~~~   ** Check values should be zero. Most Recent values listed first.
   **   ~~~   ** Demand-to-Supply interface energy check value iteration history trace: 1253.749147,1253.749147,1253.749147,1253.749147,1253.749147,1253.749147,1253.749147,1253.749147,1253.749147,1253.749146,
   **   ~~~   ** Supply-to-demand interface deck 1 energy check value iteration history trace: 2113.785327,2113.785327,2113.785327,2113.785327,2113.785327,2113.785327,2113.785326,2113.785326,2113.785326,2113.785326,
   ** Warning ** SimHVAC: Maximum iterations (20) exceeded for all HVAC loops, at ANNUAL, 03/15 10:23 - 10:30
   **   ~~~   ** The solution for one or more of the Air Loop HVAC systems did not appear to converge
   **   ~~~   ** Air System Named = CENTRAL SYSTEM did not converge for mass flow rate
   **   ~~~   ** Check values should be zero. Most Recent values listed first.
   **   ~~~   ** Demand-to-Supply interface mass flow rate check value iteration history trace: 5.644987E-002,5.644987E-002,5.644987E-002,5.644987E-002,5.644987E-002,5.644987E-002,5.644987E-002,5.644987E-002,5.644987E-002,5.644987E-002,
   **   ~~~   ** Supply-to-demand interface deck 1 mass flow rate check value iteration history trace: 5.644987E-002,5.644987E-002,5.644987E-002,5.644987E-002,5.644987E-002,5.644987E-002,5.644987E-002,5.644987E-002,5.644987E-002,5.644987E-002,
   **   ~~~   ** Air System Named = CENTRAL SYSTEM did not converge for energy
   **   ~~~   ** Check values should be zero. Most Recent values listed first.
   **   ~~~   ** Demand-to-Supply interface energy check value iteration history trace: 1113.150370,1113.150370,1113.150370,1113.150370,1113.150370,1113.150369,1113.150369,1113.150369,1113.150369,1113.150369,
   **   ~~~   ** Supply-to-demand interface deck 1 energy check value iteration history trace: 1977.930566,1977.930565,1977.930565,1977.930565,1977.930565,1977.930565,1977.930565,1977.930565,1977.930565,1977.930565,
   ** Warning ** SimHVAC: Maximum iterations (20) exceeded for all HVAC loops, at ANNUAL, 03/19 07:50 - 07:55
   **   ~~~   ** The solution for one or more of the Air Loop HVAC systems did not appear to converge
   **   ~~~   ** Air System Named = CENTRAL SYSTEM did not converge for mass flow rate
   **   ~~~   ** Check values should be zero. Most Recent values listed first.
   **   ~~~   ** Demand-to-Supply interface mass flow rate check value iteration history trace: 0.285615,0.285615,0.285615,0.285615,0.285615,0.285615,0.285615,0.285615,0.285615,0.285615,
   **   ~~~   ** Supply-to-demand interface deck 1 mass flow rate check value iteration history trace: 0.285615,0.285615,0.285615,0.285615,0.285615,0.285615,0.285615,0.285615,0.285615,0.285615,
   **   ~~~   ** Air System Named = CENTRAL SYSTEM did not converge for energy
   **   ~~~   ** Check values should be zero. Most Recent values listed first.
   **   ~~~   ** Demand-to-Supply interface energy check value iteration history trace: 6869.281354,6869.281356,6869.281357,6869.281358,6869.281360,6869.281361,6869.281362,6869.281363,6869.281365,6869.281366,
   **   ~~~   ** Supply-to-demand interface deck 1 energy check value iteration history trace: 3797.642972,3797.642973,3797.642973,3797.642974,3797.642975,3797.642975,3797.642976,3797.642977,3797.642978,3797.642978,
   ************* Simulation Error Summary *************
   ** Warning ** The following Report Variables were requested but not generated -- check.rdd file
   **   ~~~   ** Either the IDF did not contain these elements, the variable name is misspelled,
   **   ~~~   ** or the requested variable is an advanced output which requires Output : Diagnostics, DisplayAdvancedReportVariables;
   ************* Key=*, VarName=BASEBOARD TOTAL HEATING ENERGY, Frequency=
   ************* Key=*, VarName=WATER HEATER NATURALGAS ENERGY, Frequency=
   ************* Key=*, VarName=COOLING COIL TOTAL HEATING ENERGY, Frequency=
   ************* There are 34 unused schedules in input.
   ************* There are 388 unused week schedules in input.
   ************* There are 396 unused day schedules in input.
   ************* Use Output:Diagnostics,DisplayUnusedSchedules; to see them.
   *************
   ************* ===== Recurring Error Summary =====
   ************* The following recurring error messages occurred.
   *************
   *************  ** Warning ** "TOTAL HOT WATER LOAD" - Target water temperature should be less than or equal to the hot water temperature error continues...
   *************  **   ~~~   **   This error occurred 171859 total times;
   *************  **   ~~~   **   during Warmup 0 times;
   *************  **   ~~~   **   during Sizing 0 times.
   *************  **   ~~~   **   Max=11.466638  Min=9.546169E-004
   *************
   *************  ** Warning ** SimHVAC: Exceeding Maximum iterations for all HVAC loops, during ANNUAL continues
   *************  **   ~~~   **   This error occurred 6 total times;
   *************  **   ~~~   **   during Warmup 0 times;
   *************  **   ~~~   **   during Sizing 0 times.
   *************
   *************
   ************* ===== Final Error Summary =====
   ************* The following error categories occurred.  Consider correcting or noting.
   ************* Nominally Unused Constructions
   ************* ..The nominally unused constructions warning is provided to alert you to potential conditions that can cause
   ************* ..extra time during simulation. Each construction is calculated by the algorithm indicated in the HeatBalanceAlgorithm
   ************* ..object. You may remove the constructions indicated (when you use the DisplayExtraWarnings option).
   *************
   ************* EnergyPlus Warmup Error Summary. During Warmup: 0 Warning; 0 Severe Errors.
   ************* EnergyPlus Sizing Error Summary. During Sizing: 4 Warning; 0 Severe Errors.
   ************* EnergyPlus Completed Successfully-- 171897 Warning; 0 Severe Errors; Elapsed Time=00hr 01min 45.54sec
