Program Version,EnergyPlus, Version 22.2.0-c249759bad, YMD=2023.08.15 20:38,
   ************* Beginning Zone Sizing Calculations
   ** Warning ** Foundation:Kiva="KIVA FOUNDATION", no Interior Horizontal Insulation Material Name defined
   **   ~~~   ** Interior Horizontal Insulation Depth will not be used.
   ** Warning ** GetSurfaceData: Very small surface area[1.00000E-006], Surface=INTERNALMASS
   ** Warning ** CheckUsedConstructions: There are 15 nominally unused constructions in input.
   **   ~~~   ** Each Unused construction is shown.
   ************* Construction=INTERIOR FLOOR
   ************* Construction=INTERIOR WINDOW
   ************* Construction=EXTERIOR DOOR
   ************* Construction=INTERIOR DOOR
   ************* Construction=GABLE CONSTRUCTION
   ************* Construction=CRAWL_FLOOR
   ************* Construction=INSULATED PIPE
   ************* Construction=PLAIN PIPE
   ************* Construction=TDD PIPE
   ************* Construction=TDD DOME
   ************* Construction=TDD DIFFUSER
   ************* Construction=CRAWL WALL
   ************* Construction=CEILING-FLOOR-LAYER
   ************* Construction=SLAB CONSTRUCTION W FULL R10 INSULATION
   ************* Construction=SLAB CONSTRUCTION W FULL R5 INSULATION
   ************* Beginning System Sizing Calculations
   ** Warning ** ManageSizing: For a plant sizing run, there must be at least 1 Sizing:Plant object input. SimulationControl Plant Sizing option ignored.
   ************* SizeHVACSingleDuct: Potential issue with equipment sizing for AirTerminal:SingleDuct:ConstantVolume:NoReheat = "ZONEDIRECTAIR".
   **   ~~~   ** User-Specified Maximum Air Flow Rate of 0.32722 [m3/s]
   **   ~~~   ** differs from Design Size Maximum Air Flow Rate of 0.55912 [m3/s]
   **   ~~~   ** This may, or may not, indicate mismatched component sizes.
   **   ~~~   ** Verify that the value entered is intended and is consistent with other components.
   ** Warning ** GetDXCoils: Coil:Heating:DX:MultiSpeed="DX_HEATING_COIL" curve values
   **   ~~~   ** ... Defrost Energy Input Ratio Function of Temperature Curve Name = DEFROSTEIR output is not equal to 1.0 (+ or - 10%) at rated conditions.
   **   ~~~   ** ... Curve output at rated conditions = 0.152
   ** Warning ** AirLoopHVAC:UnitaryHeatPump:AirToAir:MultiSpeed - air flow rate = 0.3272168 in fan object FAN is less than the MSHP system air flow rate when cooling is required (0.3926602).
   **   ~~~   **  The MSHP system flow rate when cooling is required is reset to the fan flow rate and the simulation continues.
   **   ~~~   **  Occurs in AirLoopHVAC:UnitaryHeatPump:AirToAir:MultiSpeed = MS HEAT PUMP
   ** Warning ** AirLoopHVAC:UnitaryHeatPump:AirToAir:MultiSpeed - air flow rate = 0.3272168 in fan object FAN is less than the MSHP system air flow rate when heating is required (0.3926602).
   **   ~~~   **  The MSHP system flow rate when heating is required is reset to the fan flow rate and the simulation continues.
   **   ~~~   **  Occurs in AirLoopHVAC:UnitaryHeatPump:AirToAir:MultiSpeed = MS HEAT PUMP
   ************* SizeFan: : Potential issue with equipment sizing for Fan:OnOff FAN
   **   ~~~   ** User-Specified Maximum Flow Rate [m3/s] = 0.32722
   **   ~~~   ** differs from Design Size Maximum Flow Rate [m3/s] = 0.55912
   **   ~~~   ** This may, or may not, indicate mismatched component sizes.
   **   ~~~   ** Verify that the value entered is intended and is consistent with other components.
   ************* SizeDXCoil: Potential issue with equipment sizing for Coil:Cooling:DX:MultiSpeed DX_COOLING_COIL
   **   ~~~   ** User-Specified Speed 4 Gross Rated Total Cooling Capacity [m3/s] = 0.39266
   **   ~~~   ** differs from Design Size Speed 4 Gross Rated Total Cooling Capacity [m3/s] = 0.55912
   **   ~~~   ** This may, or may not, indicate mismatched component sizes.
   **   ~~~   ** Verify that the value entered is intended and is consistent with other components.
   ************* SizeDXCoil: Potential issue with equipment sizing for Coil:Cooling:DX:MultiSpeed DX_COOLING_COIL
   **   ~~~   ** User-Specified Speed 3 Gross Rated Sensible Heat Ratio [m3/s] = 0.32722
   **   ~~~   ** differs from Design Size Speed 3 Gross Rated Sensible Heat Ratio [m3/s] = 0.41934
   **   ~~~   ** This may, or may not, indicate mismatched component sizes.
   **   ~~~   ** Verify that the value entered is intended and is consistent with other components.
   ************* SizeDXCoil: Potential issue with equipment sizing for Coil:Cooling:DX:MultiSpeed DX_COOLING_COIL
   **   ~~~   ** User-Specified Speed 1 Rated Air Flow Rate [m3/s] = 0.19633
   **   ~~~   ** differs from Design Size Speed 1 Rated Air Flow Rate [m3/s] = 0.13978
   **   ~~~   ** This may, or may not, indicate mismatched component sizes.
   **   ~~~   ** Verify that the value entered is intended and is consistent with other components.
   ************* SizeDXCoil: Potential issue with equipment sizing for Coil:Cooling:DX:MultiSpeed DX_COOLING_COIL
   **   ~~~   ** User-Specified Speed 3 Evaporative Condenser Effectiveness [W] = 10198.87324
   **   ~~~   ** differs from Design Size Speed 3 Evaporative Condenser Effectiveness [W] = 6499.92184
   **   ~~~   ** This may, or may not, indicate mismatched component sizes.
   **   ~~~   ** Verify that the value entered is intended and is consistent with other components.
   ************* SizeDXCoil: Potential issue with equipment sizing for Coil:Cooling:DX:MultiSpeed DX_COOLING_COIL
   **   ~~~   ** User-Specified Speed 2 Evaporative Condenser Air Flow Rate [W] = 8499.06103
   **   ~~~   ** differs from Design Size Speed 2 Evaporative Condenser Air Flow Rate [W] = 4874.94138
   **   ~~~   ** This may, or may not, indicate mismatched component sizes.
   **   ~~~   ** Verify that the value entered is intended and is consistent with other components.
   ************* SizeDXCoil: Potential issue with equipment sizing for Coil:Cooling:DX:MultiSpeed DX_COOLING_COIL
   **   ~~~   ** User-Specified Speed 1 Rated Evaporative Condenser Pump Power Consumption [W] = 5694.37089
   **   ~~~   ** differs from Design Size Speed 1 Rated Evaporative Condenser Pump Power Consumption [W] = 3249.96092
   **   ~~~   ** This may, or may not, indicate mismatched component sizes.
   **   ~~~   ** Verify that the value entered is intended and is consistent with other components.
   ************* SizeDXCoil: Potential issue with equipment sizing for Coil:Cooling:DX:MultiSpeed DX_COOLING_COIL
   **   ~~~   ** User-Specified Speed 1 Gross Rated Total Cooling Capacity [W] = 4164.53990
   **   ~~~   ** differs from Design Size Speed 1 Gross Rated Total Cooling Capacity [W] = 1624.98046
   **   ~~~   ** This may, or may not, indicate mismatched component sizes.
   **   ~~~   ** Verify that the value entered is intended and is consistent with other components.
   ************* SizeDXCoil: Potential issue with equipment sizing for Coil:Cooling:DX:MultiSpeed DX_COOLING_COIL
   **   ~~~   ** User-Specified Speed 4 Rated Sensible Heat Ratio = 0.65000
   **   ~~~   ** differs from Design Size Speed 4 Rated Sensible Heat Ratio = 0.80066
   **   ~~~   ** This may, or may not, indicate mismatched component sizes.
   **   ~~~   ** Verify that the value entered is intended and is consistent with other components.
   ************* SizeDXCoil: Potential issue with equipment sizing for Coil:Cooling:DX:MultiSpeed DX_COOLING_COIL
   **   ~~~   ** User-Specified Speed 2 Rated Sensible Heat Ratio = 0.78000
   **   ~~~   ** differs from Design Size Speed 2 Rated Sensible Heat Ratio = 0.65000
   **   ~~~   ** This may, or may not, indicate mismatched component sizes.
   **   ~~~   ** Verify that the value entered is intended and is consistent with other components.
   ************* SizeDXCoil: Potential issue with equipment sizing for Coil:Cooling:DX:MultiSpeed DX_COOLING_COIL
   **   ~~~   ** User-Specified Speed 1 Rated Sensible Heat Ratio = 0.79500
   **   ~~~   ** differs from Design Size Speed 1 Rated Sensible Heat Ratio = 0.65000
   **   ~~~   ** This may, or may not, indicate mismatched component sizes.
   **   ~~~   ** Verify that the value entered is intended and is consistent with other components.
   ** Warning ** For object = Coil:Cooling:DX:MultiSpeed, name = "DX_COOLING_COIL"
   **   ~~~   ** Calculated outlet air relative humidity greater than 1. The combination of
   **   ~~~   ** rated air volume flow rate, total cooling capacity and sensible heat ratio yields coil exiting
   **   ~~~   ** air conditions above the saturation curve. Possible fixes are to reduce the rated total cooling
   **   ~~~   ** capacity, increase the rated air volume flow rate, or reduce the rated sensible heat ratio for this coil.
   **   ~~~   ** If autosizing, it is recommended that all three of these values be autosized.
   **   ~~~   ** ...Inputs used for calculating cooling coil bypass factor.
   **   ~~~   ** ...Inlet Air Temperature     = 26.67 C
   **   ~~~   ** ...Outlet Air Temperature    = 12.41 C
   **   ~~~   ** ...Inlet Air Humidity Ratio  = 1.118470E-002 kgWater/kgDryAir
   **   ~~~   ** ...Outlet Air Humidity Ratio = 9.710800E-003 kgWater/kgDryAir
   **   ~~~   ** ...Total Cooling Capacity used in calculation = 4164.54 W
   **   ~~~   ** ...Air Mass Flow Rate used in calculation     = 0.227104 kg/s
   **   ~~~   ** ...Air Volume Flow Rate used in calculation   = 0.196330 m3/s
   **   ~~~   **  During Warmup, Environment=EXTREME_WINTER, at Simulation time=02/10 00:00 - 00:10
   **   ~~~   ** CalcCBF: SHR adjusted to achieve valid outlet air properties and the simulation continues.
   **   ~~~   ** CalcCBF: initial SHR = 0.79500
   **   ~~~   ** CalcCBF: adjusted SHR = 0.75351
   ** Warning ** Sizing: Coil:Cooling:DX:MultiSpeed "DX_COOLING_COIL": Rated air volume flow rate per watt of rated total cooling capacity is out of range at speed 3
   **   ~~~   ** Min Rated Vol Flow Per Watt=[4.027E-005], Rated Vol Flow Per Watt=[3.850E-005], Max Rated Vol Flow Per Watt=[6.041E-005]. See Input Output Reference Manual for valid range.
   ** Warning ** Sizing: Coil:Cooling:DX:MultiSpeed "DX_COOLING_COIL": Rated air volume flow rate per watt of rated total cooling capacity is out of range at speed 4
   **   ~~~   ** Min Rated Vol Flow Per Watt=[4.027E-005], Rated Vol Flow Per Watt=[3.850E-005], Max Rated Vol Flow Per Watt=[6.041E-005]. See Input Output Reference Manual for valid range.
   ************* SizeDXCoil: Potential issue with equipment sizing for Coil:Heating:DX:MultiSpeed DX_HEATING_COIL
   **   ~~~   ** User-Specified Speed 3 Rated Waste Heat Fraction of Power Input [m3/s] = 0.39266
   **   ~~~   ** differs from Design Size Speed 3 Rated Waste Heat Fraction of Power Input [m3/s] = 0.55912
   **   ~~~   ** This may, or may not, indicate mismatched component sizes.
   **   ~~~   ** Verify that the value entered is intended and is consistent with other components.
   ************* SizeDXCoil: Potential issue with equipment sizing for Coil:Heating:DX:MultiSpeed DX_HEATING_COIL
   **   ~~~   ** User-Specified Speed 3 Gross Rated Heating Capacity [m3/s] = 0.32722
   **   ~~~   ** differs from Design Size Speed 3 Gross Rated Heating Capacity [m3/s] = 0.41934
   **   ~~~   ** This may, or may not, indicate mismatched component sizes.
   **   ~~~   ** Verify that the value entered is intended and is consistent with other components.
   ************* SizeDXCoil: Potential issue with equipment sizing for Coil:Heating:DX:MultiSpeed DX_HEATING_COIL
   **   ~~~   ** User-Specified Speed 1 Rated Air Flow Rate [m3/s] = 0.19633
   **   ~~~   ** differs from Design Size Speed 1 Rated Air Flow Rate [m3/s] = 0.13978
   **   ~~~   ** This may, or may not, indicate mismatched component sizes.
   **   ~~~   ** Verify that the value entered is intended and is consistent with other components.
   ************* SizeDXCoil: Potential issue with equipment sizing for Coil:Heating:DX:MultiSpeed DX_HEATING_COIL
   **   ~~~   ** User-Specified 2017 Speed 3 Rated Supply Air Fan Power Per Volume Flow Rate [W] = 8088.76153
   **   ~~~   ** differs from Design Size 2017 Speed 3 Rated Supply Air Fan Power Per Volume Flow Rate [W] = 6499.92184
   **   ~~~   ** This may, or may not, indicate mismatched component sizes.
   **   ~~~   ** Verify that the value entered is intended and is consistent with other components.
   ************* SizeDXCoil: Potential issue with equipment sizing for Coil:Heating:DX:MultiSpeed DX_HEATING_COIL
   **   ~~~   ** User-Specified 2023 Speed 2 Rated Supply Air Fan Power Per Volume Flow Rate [W] = 6740.63461
   **   ~~~   ** differs from Design Size 2023 Speed 2 Rated Supply Air Fan Power Per Volume Flow Rate [W] = 4874.94138
   **   ~~~   ** This may, or may not, indicate mismatched component sizes.
   **   ~~~   ** Verify that the value entered is intended and is consistent with other components.
   ************* SizeDXCoil: Potential issue with equipment sizing for Coil:Heating:DX:MultiSpeed DX_HEATING_COIL
   **   ~~~   ** User-Specified Speed 1 Rated Waste Heat Fraction of Power Input [W] = 4516.22519
   **   ~~~   ** differs from Design Size Speed 1 Rated Waste Heat Fraction of Power Input [W] = 3249.96092
   **   ~~~   ** This may, or may not, indicate mismatched component sizes.
   **   ~~~   ** Verify that the value entered is intended and is consistent with other components.
   ************* SizeDXCoil: Potential issue with equipment sizing for Coil:Heating:DX:MultiSpeed DX_HEATING_COIL
   **   ~~~   ** User-Specified Speed 1 Gross Rated Heating Capacity [W] = 3302.91096
   **   ~~~   ** differs from Design Size Speed 1 Gross Rated Heating Capacity [W] = 1624.98046
   **   ~~~   ** This may, or may not, indicate mismatched component sizes.
   **   ~~~   ** Verify that the value entered is intended and is consistent with other components.
   ** Warning ** Coil:Heating:DX:MultiSpeed DX_HEATING_COIL: Rated air volume flow rate per watt of rated total heating capacity is out of range at speed 2
   **   ~~~   ** Min Rated Vol Flow Per Watt=[4.027E-005], Rated Vol Flow Per Watt=[6.520E-005], Max Rated Vol Flow Per Watt=[6.041E-005]. See Input Output Reference Manual for valid range.
   ** Warning ** Output:Meter: invalid Key Name="PUMPS:ELECTRICITY" - not found.
   ** Warning ** Output:Meter: invalid Key Name="WATERSYSTEMS:ELECTRICITY" - not found.
   ** Warning ** Output:Meter: invalid Key Name="ELECTRIC_RANGE:INTERIOREQUIPMENT:ELECTRICITY" - not found.
   ** Warning ** Output:Meter: invalid Key Name="ELECTRIC_DRYER:INTERIOREQUIPMENT:ELECTRICITY" - not found.
   ** Warning ** Output:Meter: invalid Key Name="GAS_DRYER:INTERIOREQUIPMENT:ELECTRICITY" - not found.
   ** Warning ** Output:Meter: invalid Key Name="CLOTHESWASHER:INTERIOREQUIPMENT:ELECTRICITY" - not found.
   ** Warning ** Output:Meter: invalid Key Name="DISHWASHER:INTERIOREQUIPMENT:ELECTRICITY" - not found.
   ** Warning ** Output:Meter: invalid Key Name="REFRIGERATOR:INTERIOREQUIPMENT:ELECTRICITY" - not found.
   ** Warning ** Output:Meter: invalid Key Name="HEATRECOVERY:ELECTRICITY" - not found.
   ** Warning ** Output:Meter: invalid Key Name="HEATING:NATURALGAS" - not found.
   ** Warning ** Output:Meter: invalid Key Name="WATERSYSTEMS:NATURALGAS" - not found.
   ** Warning ** Output:Meter: invalid Key Name="GAS_DRYER:INTERIOREQUIPMENT:NATURALGAS" - not found.
   ** Warning ** Output:Meter: invalid Key Name="PROPANE:FACILITY" - not found.
   ** Warning ** Output:Meter: invalid Key Name="HEATING:PROPANE" - not found.
   ************* Testing Individual Branch Integrity
   ************* All Branches passed integrity testing
   ************* Testing Individual Supply Air Path Integrity
   ************* All Supply Air Paths passed integrity testing
   ************* Testing Individual Return Air Path Integrity
   ************* All Return Air Paths passed integrity testing
   ************* No node connection errors were found.
   ************* Beginning Simulation
   ** Warning ** SimHVAC: Maximum iterations (20) exceeded for all HVAC loops, at ANNUAL, 09/26 17:35 - 17:40
   **   ~~~   ** The solution for one or more of the Air Loop HVAC systems did not appear to converge
   **   ~~~   ** Air System Named = CENTRAL SYSTEM did not converge for mass flow rate
   **   ~~~   ** Check values should be zero. Most Recent values listed first.
   **   ~~~   ** Demand-to-Supply interface mass flow rate check value iteration history trace: 2.327997E-002,2.327996E-002,2.327997E-002,2.327997E-002,2.327997E-002,2.327996E-002,2.327997E-002,2.327996E-002,2.327997E-002,2.327997E-002,
   **   ~~~   ** Supply-to-demand interface deck 1 mass flow rate check value iteration history trace: 2.327997E-002,2.327996E-002,2.327997E-002,2.327997E-002,2.327997E-002,2.327996E-002,2.327997E-002,2.327996E-002,2.327997E-002,2.327997E-002,
   **   ~~~   ** Air System Named = CENTRAL SYSTEM did not converge for humidity ratio
   **   ~~~   ** Check values should be zero. Most Recent values listed first.
   **   ~~~   ** Demand-to-Supply interface humidity ratio check value iteration history trace: 1.612798E-012,1.774117E-012,1.612795E-012,1.774114E-012,1.612798E-012,1.774117E-012,1.612800E-012,1.774119E-012,1.612800E-012,1.774117E-012,
   **   ~~~   ** Supply-to-demand interface deck 1 humidity ratio check value iteration history trace: 1.794150E-004,1.794149E-004,1.794149E-004,1.794148E-004,1.794148E-004,1.794147E-004,1.794148E-004,1.794147E-004,1.794146E-004,1.794146E-004,
   **   ~~~   ** Air System Named = CENTRAL SYSTEM did not converge for temperature
   **   ~~~   ** Check values should be zero. Most Recent values listed first.
   **   ~~~   ** Demand-to-Supply interface temperature check value iteration history trace: 6.787519E-006,7.359740E-006,6.787523E-006,7.359743E-006,6.787526E-006,7.359748E-006,6.787529E-006,7.359752E-006,6.787533E-006,7.359755E-006,
   **   ~~~   ** Supply-to-demand interface deck 1 temperature check value iteration history trace: 1.268743,1.268689,1.268743,1.268689,1.268743,1.268689,1.268743,1.268689,1.268743,1.268689,
   **   ~~~   ** Air System Named = CENTRAL SYSTEM did not converge for energy
   **   ~~~   ** Check values should be zero. Most Recent values listed first.
   **   ~~~   ** Demand-to-Supply interface energy check value iteration history trace: 491.698205,492.024118,491.698310,492.024194,491.698258,492.024141,491.698284,492.024152,491.698333,492.024250,
   **   ~~~   ** Supply-to-demand interface deck 1 energy check value iteration history trace: -483.564904,483.568043,-483.564912,483.568045,-483.564890,483.568025,-483.564948,483.568101,-483.564965,483.568109,
   **   ~~~   ** Node named ZONE INLET NODE shows oscillating temperatures across iterations with a repeated value of 10.317152
   **   ~~~   ** Node named ZONE INLET NODE temperature [C] iteration history trace (most recent first): 10.317152,10.317151,10.317151,10.317150,10.317150,10.317149,10.317149,10.317148,10.317147,10.317147,
   ************* Simulation Error Summary *************
   ** Warning ** The following Report Variables were requested but not generated -- check.rdd file
   **   ~~~   ** Either the IDF did not contain these elements, the variable name is misspelled,
   **   ~~~   ** or the requested variable is an advanced output which requires Output : Diagnostics, DisplayAdvancedReportVariables;
   ************* Key=*, VarName=BASEBOARD TOTAL HEATING ENERGY, Frequency=
   ************* There are 41 unused schedules in input.
   ************* There are 1124 unused week schedules in input.
   ************* There are 1138 unused day schedules in input.
   ************* Use Output:Diagnostics,DisplayUnusedSchedules; to see them.
   *************
   ************* ===== Final Error Summary =====
   ************* The following error categories occurred.  Consider correcting or noting.
   ************* Nominally Unused Constructions
   ************* ..The nominally unused constructions warning is provided to alert you to potential conditions that can cause
   ************* ..extra time during simulation. Each construction is calculated by the algorithm indicated in the HeatBalanceAlgorithm
   ************* ..object. You may remove the constructions indicated (when you use the DisplayExtraWarnings option).
   *************
   ************* EnergyPlus Warmup Error Summary. During Warmup: 0 Warning; 0 Severe Errors.
   ************* EnergyPlus Sizing Error Summary. During Sizing: 4 Warning; 0 Severe Errors.
   ************* EnergyPlus Completed Successfully-- 27 Warning; 0 Severe Errors; Elapsed Time=00hr 01min 16.26sec
