Program Version,EnergyPlus, Version 22.2.0-c249759bad, YMD=2023.09.01 15:14,
   ************* Beginning Zone Sizing Calculations
   ** Warning ** ProcessScheduleInput: Schedule:Constant="ALWAYS ON DISCRETE", Schedule Type Limits Name="ONOFF" not found -- will not be validated
   ** Warning ** Foundation:Kiva="KIVA FOUNDATION", no Interior Horizontal Insulation Material Name defined
   **   ~~~   ** Interior Horizontal Insulation Depth will not be used.
   ** Warning ** CheckUsedConstructions: There are 15 nominally unused constructions in input.
   **   ~~~   ** Each Unused construction is shown.
   ************* Construction=INTERIOR FLOOR
   ************* Construction=INTERIOR WINDOW
   ************* Construction=EXTERIOR DOOR
   ************* Construction=INTERIOR DOOR
   ************* Construction=GABLE CONSTRUCTION
   ************* Construction=CRAWL_FLOOR
   ************* Construction=INSULATED PIPE
   ************* Construction=PLAIN PIPE
   ************* Construction=TDD PIPE
   ************* Construction=TDD DOME
   ************* Construction=TDD DIFFUSER
   ************* Construction=CRAWL WALL
   ************* Construction=CEILING-FLOOR-LAYER
   ************* Construction=SLAB CONSTRUCTION W FULL R10 INSULATION
   ************* Construction=SLAB CONSTRUCTION W FULL R5 INSULATION
   ** Warning ** GetDXCoils: Coil:Heating:DX:SingleSpeed="DX_HEATING_COIL" curve values
   **   ~~~   ** ... Defrost Energy Input Ratio Function of Temperature Curve Name = DEFROSTEIR output is not equal to 1.0 (+ or - 10%) at rated conditions.
   **   ~~~   ** ... Curve output at rated conditions = 0.152
   ************* Beginning System Sizing Calculations
   ************* Beginning Plant Sizing Calculations
   ** Warning ** SizeDXCoil Coil:Cooling:DX:SingleSpeed DX_COOLING_COIL
   **   ~~~   ** ...Gross Rated Total Cooling Capacity [W] will be limited by the maximum rated volume flow per rated total capacity ratio.
   **   ~~~   ** ...DX coil volume flow rate ( m3/s ) = 0.357964
   **   ~~~   ** ...Requested capacity ( W ) = 5434.463
   **   ~~~   ** ...Requested flow/capacity ratio ( m3/s/W ) = 6.586E-005
   **   ~~~   ** ...Maximum flow/capacity ratio ( m3/s/W ) = 6.041E-005
   **   ~~~   ** ...Adjusted capacity ( W ) = 5925.581
   ** Warning ** Coil:WaterHeating:AirToWaterHeatPump:Wrapped "HEAT PUMP WATER HEATER EVAPORATOR": Rated air volume flow rate per watt of rated total water heating capacity is out of range
   **   ~~~   ** Min Rated Vol Flow Per Watt=[4.027E-005], Rated Vol Flow Per Watt=[1.386E-004], Max Rated Vol Flow Per Watt=[8.056E-005]. See Input-Output Reference Manual for valid range.
   ** Warning ** Water heater = WATER HEATER TANK:  Recovery Efficiency and Energy Factor could not be calculated during the test for standard ratings
   **   ~~~   ** Setpoint was never recovered and/or heater never turned on
   ** Warning ** Check input. Pump nominal power or motor efficiency is set to 0, for pump=MAINS PRESSURE
   ** Warning ** Output:Meter: invalid Key Name="ELECTRIC_RANGE:INTERIOREQUIPMENT:ELECTRICITY" - not found.
   ** Warning ** Output:Meter: invalid Key Name="ELECTRIC_DRYER:INTERIOREQUIPMENT:ELECTRICITY" - not found.
   ** Warning ** Output:Meter: invalid Key Name="HEATRECOVERY:ELECTRICITY" - not found.
   ** Warning ** Output:Meter: invalid Key Name="HEATING:NATURALGAS" - not found.
   ** Warning ** Output:Meter: invalid Key Name="WATERSYSTEMS:NATURALGAS" - not found.
   ** Warning ** Output:Meter: invalid Key Name="PROPANE:FACILITY" - not found.
   ** Warning ** Output:Meter: invalid Key Name="HEATING:PROPANE" - not found.
   ************* Testing Individual Branch Integrity
   ************* All Branches passed integrity testing
   ************* Testing Individual Supply Air Path Integrity
   ************* All Supply Air Paths passed integrity testing
   ************* Testing Individual Return Air Path Integrity
   ************* All Return Air Paths passed integrity testing
   ************* No node connection errors were found.
   ************* Beginning Simulation
   ** Warning ** AirflowNetwork::Solver::validate_distribution: Heat pump water heater is simulated along with an AirflowNetwork but is not included in the AirflowNetwork.
   ** Warning ** CalcEquipmentFlowRates: "TOTAL HOT WATER LOAD" - Target water temperature is greater than the hot water temperature by (1.64 C)
   **   ~~~   **  Environment=EXTREME_WINTER, at Simulation time=12/15 06:00 - 06:15
   **   ~~~   ** ...target water temperature     = 53.33 C
   **   ~~~   ** ...hot water temperature        = 51.69 C
   **   ~~~   ** ...Target water temperature should be less than or equal to the hot water temperature. Verify temperature setpoints and schedules.
   ** Warning ** SimHVAC: Maximum iterations (20) exceeded for all HVAC loops, at ANNUAL, 01/05 16:35 - 16:40
   **   ~~~   ** The solution for one or more of the Air Loop HVAC systems did not appear to converge
   **   ~~~   ** Air System Named = CENTRAL SYSTEM did not converge for mass flow rate
   **   ~~~   ** Check values should be zero. Most Recent values listed first.
   **   ~~~   ** Demand-to-Supply interface mass flow rate check value iteration history trace: 9.762476E-002,9.762476E-002,9.762476E-002,9.762476E-002,9.762476E-002,9.762476E-002,9.762476E-002,9.762476E-002,9.762476E-002,9.762476E-002,
   **   ~~~   ** Supply-to-demand interface deck 1 mass flow rate check value iteration history trace: 9.762476E-002,9.762476E-002,9.762476E-002,9.762476E-002,9.762476E-002,9.762476E-002,9.762476E-002,9.762476E-002,9.762476E-002,9.762476E-002,
   **   ~~~   ** Air System Named = CENTRAL SYSTEM did not converge for energy
   **   ~~~   ** Check values should be zero. Most Recent values listed first.
   **   ~~~   ** Demand-to-Supply interface energy check value iteration history trace: 1949.154148,1949.154148,1949.154148,1949.154148,1949.154148,1949.154147,1949.154147,1949.154147,1949.154147,1949.154147,
   **   ~~~   ** Supply-to-demand interface deck 1 energy check value iteration history trace: 2903.481519,2903.481519,2903.481519,2903.481518,2903.481518,2903.481518,2903.481518,2903.481517,2903.481517,2903.481517,
   ** Warning ** SimHVAC: Maximum iterations (20) exceeded for all HVAC loops, at ANNUAL, 01/30 19:30 - 19:45
   **   ~~~   ** The solution for one or more of the Air Loop HVAC systems did not appear to converge
   **   ~~~   ** Air System Named = CENTRAL SYSTEM did not converge for mass flow rate
   **   ~~~   ** Check values should be zero. Most Recent values listed first.
   **   ~~~   ** Demand-to-Supply interface mass flow rate check value iteration history trace: 7.977264E-002,7.977264E-002,7.977264E-002,7.977264E-002,7.977264E-002,7.977264E-002,7.977264E-002,7.977264E-002,7.977264E-002,7.977264E-002,
   **   ~~~   ** Supply-to-demand interface deck 1 mass flow rate check value iteration history trace: 7.977264E-002,7.977264E-002,7.977264E-002,7.977264E-002,7.977264E-002,7.977264E-002,7.977264E-002,7.977264E-002,7.977264E-002,7.977264E-002,
   **   ~~~   ** Air System Named = CENTRAL SYSTEM did not converge for energy
   **   ~~~   ** Check values should be zero. Most Recent values listed first.
   **   ~~~   ** Demand-to-Supply interface energy check value iteration history trace: 1576.782273,1576.782273,1576.782273,1576.782273,1576.782273,1576.782273,1576.782273,1576.782273,1576.782272,1576.782272,
   **   ~~~   ** Supply-to-demand interface deck 1 energy check value iteration history trace: 2738.605656,2738.605656,2738.605656,2738.605655,2738.605655,2738.605655,2738.605655,2738.605655,2738.605655,2738.605655,
   ** Warning ** SimHVAC: Maximum iterations (20) exceeded for all HVAC loops, at ANNUAL, 02/16 17:30 - 17:45
   **   ~~~   ** The solution for one or more of the Air Loop HVAC systems did not appear to converge
   **   ~~~   ** Air System Named = CENTRAL SYSTEM did not converge for mass flow rate
   **   ~~~   ** Check values should be zero. Most Recent values listed first.
   **   ~~~   ** Demand-to-Supply interface mass flow rate check value iteration history trace: 2.661331E-002,2.661331E-002,2.661331E-002,2.661331E-002,2.661331E-002,2.661331E-002,2.661331E-002,2.661331E-002,2.661331E-002,2.661331E-002,
   **   ~~~   ** Supply-to-demand interface deck 1 mass flow rate check value iteration history trace: 2.661331E-002,2.661331E-002,2.661331E-002,2.661331E-002,2.661331E-002,2.661331E-002,2.661331E-002,2.661331E-002,2.661331E-002,2.661331E-002,
   **   ~~~   ** Air System Named = CENTRAL SYSTEM did not converge for energy
   **   ~~~   ** Check values should be zero. Most Recent values listed first.
   **   ~~~   ** Demand-to-Supply interface energy check value iteration history trace: 524.122136,524.122136,524.122136,524.122136,524.122136,524.122136,524.122136,524.122136,524.122136,524.122136,
   **   ~~~   ** Supply-to-demand interface deck 1 energy check value iteration history trace: 906.588733,906.588733,906.588733,906.588733,906.588733,906.588733,906.588733,906.588733,906.588732,906.588732,
   ** Warning ** SimHVAC: Maximum iterations (20) exceeded for all HVAC loops, at ANNUAL, 04/11 19:10 - 19:13
   **   ~~~   ** The solution for one or more of the Air Loop HVAC systems did not appear to converge
   **   ~~~   ** Air System Named = CENTRAL SYSTEM did not converge for mass flow rate
   **   ~~~   ** Check values should be zero. Most Recent values listed first.
   **   ~~~   ** Demand-to-Supply interface mass flow rate check value iteration history trace: 8.208826E-002,8.208826E-002,8.208826E-002,8.208826E-002,8.208826E-002,8.208826E-002,8.208826E-002,8.208826E-002,8.208826E-002,8.208826E-002,
   **   ~~~   ** Supply-to-demand interface deck 1 mass flow rate check value iteration history trace: 8.208826E-002,8.208826E-002,8.208826E-002,8.208826E-002,8.208826E-002,8.208826E-002,8.208826E-002,8.208826E-002,8.208826E-002,8.208826E-002,
   **   ~~~   ** Air System Named = CENTRAL SYSTEM did not converge for energy
   **   ~~~   ** Check values should be zero. Most Recent values listed first.
   **   ~~~   ** Demand-to-Supply interface energy check value iteration history trace: 1634.374459,1634.374459,1634.374459,1634.374458,1634.374458,1634.374458,1634.374458,1634.374458,1634.374458,1634.374458,
   **   ~~~   ** Supply-to-demand interface deck 1 energy check value iteration history trace: 2797.131465,2797.131465,2797.131465,2797.131465,2797.131465,2797.131464,2797.131464,2797.131464,2797.131464,2797.131464,
   ** Warning ** SimHVAC: Maximum iterations (20) exceeded for all HVAC loops, at ANNUAL, 04/30 18:00 - 18:15
   **   ~~~   ** The solution for one or more of the Air Loop HVAC systems did not appear to converge
   **   ~~~   ** Air System Named = CENTRAL SYSTEM did not converge for mass flow rate
   **   ~~~   ** Check values should be zero. Most Recent values listed first.
   **   ~~~   ** Demand-to-Supply interface mass flow rate check value iteration history trace: 6.829764E-002,6.829764E-002,6.829764E-002,6.829764E-002,6.829764E-002,6.829764E-002,6.829764E-002,6.829764E-002,6.829764E-002,6.829764E-002,
   **   ~~~   ** Supply-to-demand interface deck 1 mass flow rate check value iteration history trace: 6.829764E-002,6.829764E-002,6.829764E-002,6.829764E-002,6.829764E-002,6.829764E-002,6.829764E-002,6.829764E-002,6.829764E-002,6.829764E-002,
   **   ~~~   ** Air System Named = CENTRAL SYSTEM did not converge for energy
   **   ~~~   ** Check values should be zero. Most Recent values listed first.
   **   ~~~   ** Demand-to-Supply interface energy check value iteration history trace: 1343.135662,1343.135662,1343.135662,1343.135662,1343.135662,1343.135662,1343.135662,1343.135662,1343.135662,1343.135662,
   **   ~~~   ** Supply-to-demand interface deck 1 energy check value iteration history trace: 2398.479329,2398.479328,2398.479328,2398.479328,2398.479328,2398.479328,2398.479328,2398.479328,2398.479328,2398.479328,
   ** Warning ** SimHVAC: Maximum iterations (20) exceeded for all HVAC loops, at ANNUAL, 04/30 18:00 - 18:08
   **   ~~~   ** The solution for one or more of the Air Loop HVAC systems did not appear to converge
   **   ~~~   ** Air System Named = CENTRAL SYSTEM did not converge for mass flow rate
   **   ~~~   ** Check values should be zero. Most Recent values listed first.
   **   ~~~   ** Demand-to-Supply interface mass flow rate check value iteration history trace: 6.881390E-002,6.881390E-002,6.881390E-002,6.881390E-002,6.881390E-002,6.881390E-002,6.881390E-002,6.881390E-002,6.881390E-002,6.881390E-002,
   **   ~~~   ** Supply-to-demand interface deck 1 mass flow rate check value iteration history trace: 6.881390E-002,6.881390E-002,6.881390E-002,6.881390E-002,6.881390E-002,6.881390E-002,6.881390E-002,6.881390E-002,6.881390E-002,6.881390E-002,
   **   ~~~   ** Air System Named = CENTRAL SYSTEM did not converge for energy
   **   ~~~   ** Check values should be zero. Most Recent values listed first.
   **   ~~~   ** Demand-to-Supply interface energy check value iteration history trace: 1353.704373,1353.704373,1353.704373,1353.704373,1353.704373,1353.704373,1353.704373,1353.704373,1353.704373,1353.704373,
   **   ~~~   ** Supply-to-demand interface deck 1 energy check value iteration history trace: 2416.949160,2416.949159,2416.949159,2416.949159,2416.949159,2416.949159,2416.949159,2416.949159,2416.949159,2416.949159,
   ** Warning ** SimHVAC: Maximum iterations (20) exceeded for all HVAC loops, at ANNUAL, 04/30 19:30 - 19:45
   **   ~~~   ** The solution for one or more of the Air Loop HVAC systems did not appear to converge
   **   ~~~   ** Air System Named = CENTRAL SYSTEM did not converge for mass flow rate
   **   ~~~   ** Check values should be zero. Most Recent values listed first.
   **   ~~~   ** Demand-to-Supply interface mass flow rate check value iteration history trace: 7.530239E-002,7.530239E-002,7.530239E-002,7.530239E-002,7.530239E-002,7.530239E-002,7.530239E-002,7.530239E-002,7.530239E-002,7.530239E-002,
   **   ~~~   ** Supply-to-demand interface deck 1 mass flow rate check value iteration history trace: 7.530239E-002,7.530239E-002,7.530239E-002,7.530239E-002,7.530239E-002,7.530239E-002,7.530239E-002,7.530239E-002,7.530239E-002,7.530239E-002,
   **   ~~~   ** Air System Named = CENTRAL SYSTEM did not converge for energy
   **   ~~~   ** Check values should be zero. Most Recent values listed first.
   **   ~~~   ** Demand-to-Supply interface energy check value iteration history trace: 1490.001680,1490.001680,1490.001680,1490.001680,1490.001680,1490.001680,1490.001680,1490.001680,1490.001680,1490.001680,
   **   ~~~   ** Supply-to-demand interface deck 1 energy check value iteration history trace: 2653.593630,2653.593630,2653.593629,2653.593629,2653.593629,2653.593629,2653.593629,2653.593629,2653.593629,2653.593629,
   ** Warning ** SimHVAC: Maximum iterations (20) exceeded for all HVAC loops, at ANNUAL, 04/30 21:15 - 21:30
   **   ~~~   ** The solution for one or more of the Air Loop HVAC systems did not appear to converge
   **   ~~~   ** Air System Named = CENTRAL SYSTEM did not converge for mass flow rate
   **   ~~~   ** Check values should be zero. Most Recent values listed first.
   **   ~~~   ** Demand-to-Supply interface mass flow rate check value iteration history trace: 6.493077E-002,6.493077E-002,6.493077E-002,6.493077E-002,6.493077E-002,6.493077E-002,6.493077E-002,6.493077E-002,6.493077E-002,6.493077E-002,
   **   ~~~   ** Supply-to-demand interface deck 1 mass flow rate check value iteration history trace: 6.493077E-002,6.493077E-002,6.493077E-002,6.493077E-002,6.493077E-002,6.493077E-002,6.493077E-002,6.493077E-002,6.493077E-002,6.493077E-002,
   **   ~~~   ** Air System Named = CENTRAL SYSTEM did not converge for energy
   **   ~~~   ** Check values should be zero. Most Recent values listed first.
   **   ~~~   ** Demand-to-Supply interface energy check value iteration history trace: 1282.228593,1282.228593,1282.228593,1282.228593,1282.228593,1282.228593,1282.228593,1282.228593,1282.228593,1282.228593,
   **   ~~~   ** Supply-to-demand interface deck 1 energy check value iteration history trace: 2306.457038,2306.457038,2306.457038,2306.457038,2306.457038,2306.457037,2306.457037,2306.457037,2306.457037,2306.457037,
   ** Warning ** SimHVAC: Maximum iterations (20) exceeded for all HVAC loops, at ANNUAL, 05/13 09:00 - 09:15
   **   ~~~   ** The solution for one or more of the Air Loop HVAC systems did not appear to converge
   **   ~~~   ** Air System Named = CENTRAL SYSTEM did not converge for mass flow rate
   **   ~~~   ** Check values should be zero. Most Recent values listed first.
   **   ~~~   ** Demand-to-Supply interface mass flow rate check value iteration history trace: 8.038322E-002,8.038322E-002,8.038322E-002,8.038322E-002,8.038322E-002,8.038322E-002,8.038322E-002,8.038322E-002,8.038322E-002,8.038322E-002,
   **   ~~~   ** Supply-to-demand interface deck 1 mass flow rate check value iteration history trace: 8.038322E-002,8.038322E-002,8.038322E-002,8.038322E-002,8.038322E-002,8.038322E-002,8.038322E-002,8.038322E-002,8.038322E-002,8.038322E-002,
   **   ~~~   ** Air System Named = CENTRAL SYSTEM did not converge for energy
   **   ~~~   ** Check values should be zero. Most Recent values listed first.
   **   ~~~   ** Demand-to-Supply interface energy check value iteration history trace: 1592.818477,1592.818477,1592.818477,1592.818476,1592.818476,1592.818476,1592.818476,1592.818476,1592.818476,1592.818476,
   **   ~~~   ** Supply-to-demand interface deck 1 energy check value iteration history trace: 2850.046051,2850.046051,2850.046051,2850.046051,2850.046051,2850.046051,2850.046051,2850.046051,2850.046050,2850.046050,
   ** Warning ** SimHVAC: Maximum iterations (20) exceeded for all HVAC loops, at ANNUAL, 06/02 07:40 - 07:45
   **   ~~~   ** The solution for one or more of the Air Loop HVAC systems did not appear to converge
   **   ~~~   ** Air System Named = CENTRAL SYSTEM did not converge for mass flow rate
   **   ~~~   ** Check values should be zero. Most Recent values listed first.
   **   ~~~   ** Demand-to-Supply interface mass flow rate check value iteration history trace: 0.305521,0.305521,0.305521,0.305521,0.305521,0.305521,0.305521,0.305521,0.305521,0.305521,
   **   ~~~   ** Supply-to-demand interface deck 1 mass flow rate check value iteration history trace: 0.305521,0.305521,0.305521,0.305521,0.305521,0.305521,0.305521,0.305521,0.305521,0.305521,
   **   ~~~   ** Air System Named = CENTRAL SYSTEM did not converge for energy
   **   ~~~   ** Check values should be zero. Most Recent values listed first.
   **   ~~~   ** Demand-to-Supply interface energy check value iteration history trace: 7333.972607,7333.972609,7333.972610,7333.972611,7333.972612,7333.972613,7333.972614,7333.972616,7333.972617,7333.972618,
   **   ~~~   ** Supply-to-demand interface deck 1 energy check value iteration history trace: 3940.904446,3940.904446,3940.904447,3940.904448,3940.904448,3940.904449,3940.904450,3940.904450,3940.904451,3940.904451,
   ** Warning ** SimHVAC: Maximum iterations (20) exceeded for all HVAC loops, at ANNUAL, 06/18 09:08 - 09:11
   **   ~~~   ** The solution for one or more of the Air Loop HVAC systems did not appear to converge
   **   ~~~   ** Air System Named = CENTRAL SYSTEM did not converge for energy
   **   ~~~   ** Check values should be zero. Most Recent values listed first.
   **   ~~~   ** Demand-to-Supply interface energy check value iteration history trace: 112.279861,112.279861,112.279861,112.279861,112.279861,112.279861,112.279861,112.279861,112.279861,112.279861,
   **   ~~~   ** Supply-to-demand interface deck 1 energy check value iteration history trace: 58.848098,58.848098,58.848098,58.848098,58.848098,58.848098,58.848098,58.848098,58.848098,58.848098,
   ** Warning ** SimHVAC: Maximum iterations (20) exceeded for all HVAC loops, at ANNUAL, 09/16 09:34 - 09:38
   **   ~~~   ** The solution for one or more of the Air Loop HVAC systems did not appear to converge
   **   ~~~   ** Air System Named = CENTRAL SYSTEM did not converge for mass flow rate
   **   ~~~   ** Check values should be zero. Most Recent values listed first.
   **   ~~~   ** Demand-to-Supply interface mass flow rate check value iteration history trace: 5.920028E-002,5.920028E-002,5.920028E-002,5.920028E-002,5.920028E-002,5.920028E-002,5.920028E-002,5.920028E-002,5.920028E-002,5.920028E-002,
   **   ~~~   ** Supply-to-demand interface deck 1 mass flow rate check value iteration history trace: 5.920028E-002,5.920028E-002,5.920028E-002,5.920028E-002,5.920028E-002,5.920028E-002,5.920028E-002,5.920028E-002,5.920028E-002,5.920028E-002,
   **   ~~~   ** Air System Named = CENTRAL SYSTEM did not converge for energy
   **   ~~~   ** Check values should be zero. Most Recent values listed first.
   **   ~~~   ** Demand-to-Supply interface energy check value iteration history trace: 1164.495650,1164.495650,1164.495649,1164.495649,1164.495649,1164.495649,1164.495649,1164.495649,1164.495649,1164.495649,
   **   ~~~   ** Supply-to-demand interface deck 1 energy check value iteration history trace: 2160.980667,2160.980667,2160.980667,2160.980667,2160.980667,2160.980667,2160.980667,2160.980666,2160.980666,2160.980666,
   ** Warning ** SimHVAC: Maximum iterations (20) exceeded for all HVAC loops, at ANNUAL, 09/23 08:50 - 08:52
   **   ~~~   ** The solution for one or more of the Air Loop HVAC systems did not appear to converge
   **   ~~~   ** Air System Named = CENTRAL SYSTEM did not converge for mass flow rate
   **   ~~~   ** Check values should be zero. Most Recent values listed first.
   **   ~~~   ** Demand-to-Supply interface mass flow rate check value iteration history trace: 7.239510E-002,7.239510E-002,7.239510E-002,7.239510E-002,7.239510E-002,7.239510E-002,7.239510E-002,7.239510E-002,7.239510E-002,7.239510E-002,
   **   ~~~   ** Supply-to-demand interface deck 1 mass flow rate check value iteration history trace: 7.239510E-002,7.239510E-002,7.239510E-002,7.239510E-002,7.239510E-002,7.239510E-002,7.239510E-002,7.239510E-002,7.239510E-002,7.239510E-002,
   **   ~~~   ** Air System Named = CENTRAL SYSTEM did not converge for energy
   **   ~~~   ** Check values should be zero. Most Recent values listed first.
   **   ~~~   ** Demand-to-Supply interface energy check value iteration history trace: 1428.462537,1428.462537,1428.462537,1428.462537,1428.462537,1428.462537,1428.462537,1428.462537,1428.462537,1428.462537,
   **   ~~~   ** Supply-to-demand interface deck 1 energy check value iteration history trace: 2610.675464,2610.675464,2610.675464,2610.675464,2610.675463,2610.675463,2610.675463,2610.675463,2610.675463,2610.675463,
   ** Warning ** SimHVAC: Maximum iterations (20) exceeded for all HVAC loops, at ANNUAL, 10/10 08:50 - 08:52
   **   ~~~   ** The solution for one or more of the Air Loop HVAC systems did not appear to converge
   **   ~~~   ** Air System Named = CENTRAL SYSTEM did not converge for mass flow rate
   **   ~~~   ** Check values should be zero. Most Recent values listed first.
   **   ~~~   ** Demand-to-Supply interface mass flow rate check value iteration history trace: 7.559406E-002,7.559406E-002,7.559406E-002,7.559406E-002,7.559406E-002,7.559406E-002,7.559406E-002,7.559406E-002,7.559406E-002,7.559406E-002,
   **   ~~~   ** Supply-to-demand interface deck 1 mass flow rate check value iteration history trace: 7.559406E-002,7.559406E-002,7.559406E-002,7.559406E-002,7.559406E-002,7.559406E-002,7.559406E-002,7.559406E-002,7.559406E-002,7.559406E-002,
   **   ~~~   ** Air System Named = CENTRAL SYSTEM did not converge for energy
   **   ~~~   ** Check values should be zero. Most Recent values listed first.
   **   ~~~   ** Demand-to-Supply interface energy check value iteration history trace: 1498.035247,1498.035247,1498.035247,1498.035247,1498.035247,1498.035247,1498.035247,1498.035247,1498.035247,1498.035247,
   **   ~~~   ** Supply-to-demand interface deck 1 energy check value iteration history trace: 2609.277109,2609.277109,2609.277109,2609.277109,2609.277108,2609.277108,2609.277108,2609.277108,2609.277108,2609.277108,
   ************* Simulation Error Summary *************
   ** Warning ** The following Report Variables were requested but not generated -- check.rdd file
   **   ~~~   ** Either the IDF did not contain these elements, the variable name is misspelled,
   **   ~~~   ** or the requested variable is an advanced output which requires Output : Diagnostics, DisplayAdvancedReportVariables;
   ************* Key=*, VarName=BASEBOARD TOTAL HEATING ENERGY, Frequency=
   ************* Key=*, VarName=WATER HEATER NATURALGAS ENERGY, Frequency=
   ************* Key=*, VarName=COOLING COIL TOTAL HEATING ENERGY, Frequency=
   ************* There are 34 unused schedules in input.
   ************* There are 388 unused week schedules in input.
   ************* There are 396 unused day schedules in input.
   ************* Use Output:Diagnostics,DisplayUnusedSchedules; to see them.
   *************
   ************* ===== Recurring Error Summary =====
   ************* The following recurring error messages occurred.
   *************
   *************  ** Warning ** "TOTAL HOT WATER LOAD" - Target water temperature should be less than or equal to the hot water temperature error continues...
   *************  **   ~~~   **   This error occurred 89665 total times;
   *************  **   ~~~   **   during Warmup 0 times;
   *************  **   ~~~   **   during Sizing 0 times.
   *************  **   ~~~   **   Max=11.089133  Min=7.036755E-005
   *************
   *************  ** Warning ** SimHVAC: Exceeding Maximum iterations for all HVAC loops, during ANNUAL continues
   *************  **   ~~~   **   This error occurred 4 total times;
   *************  **   ~~~   **   during Warmup 0 times;
   *************  **   ~~~   **   during Sizing 0 times.
   *************
   *************
   ************* ===== Final Error Summary =====
   ************* The following error categories occurred.  Consider correcting or noting.
   ************* Nominally Unused Constructions
   ************* ..The nominally unused constructions warning is provided to alert you to potential conditions that can cause
   ************* ..extra time during simulation. Each construction is calculated by the algorithm indicated in the HeatBalanceAlgorithm
   ************* ..object. You may remove the constructions indicated (when you use the DisplayExtraWarnings option).
   *************
   ************* EnergyPlus Warmup Error Summary. During Warmup: 1 Warning; 0 Severe Errors.
   ************* EnergyPlus Sizing Error Summary. During Sizing: 4 Warning; 0 Severe Errors.
   ************* EnergyPlus Completed Successfully-- 89701 Warning; 0 Severe Errors; Elapsed Time=00hr 05min 20.42sec
