Program Version,EnergyPlus, Version 22.2.0-c249759bad, YMD=2023.09.01 20:08,
   ************* Beginning Zone Sizing Calculations
   ** Warning ** ProcessScheduleInput: Schedule:Constant="ALWAYS ON DISCRETE", Schedule Type Limits Name="ONOFF" not found -- will not be validated
   ** Warning ** Foundation:Kiva="KIVA FOUNDATION", no Interior Horizontal Insulation Material Name defined
   **   ~~~   ** Interior Horizontal Insulation Depth will not be used.
   ** Warning ** CheckUsedConstructions: There are 15 nominally unused constructions in input.
   **   ~~~   ** Each Unused construction is shown.
   ************* Construction=INTERIOR FLOOR
   ************* Construction=INTERIOR WINDOW
   ************* Construction=EXTERIOR DOOR
   ************* Construction=INTERIOR DOOR
   ************* Construction=GABLE CONSTRUCTION
   ************* Construction=CRAWL_FLOOR
   ************* Construction=INSULATED PIPE
   ************* Construction=PLAIN PIPE
   ************* Construction=TDD PIPE
   ************* Construction=TDD DOME
   ************* Construction=TDD DIFFUSER
   ************* Construction=CRAWL WALL
   ************* Construction=CEILING-FLOOR-LAYER
   ************* Construction=SLAB CONSTRUCTION W FULL R10 INSULATION
   ************* Construction=SLAB CONSTRUCTION W FULL R5 INSULATION
   ** Warning ** GetDXCoils: Coil:Heating:DX:SingleSpeed="DX_HEATING_COIL" curve values
   **   ~~~   ** ... Defrost Energy Input Ratio Function of Temperature Curve Name = DEFROSTEIR output is not equal to 1.0 (+ or - 10%) at rated conditions.
   **   ~~~   ** ... Curve output at rated conditions = 0.152
   ************* Beginning System Sizing Calculations
   ************* Beginning Plant Sizing Calculations
   ** Warning ** SizeDXCoil Coil:Cooling:DX:SingleSpeed DX_COOLING_COIL
   **   ~~~   ** ...Gross Rated Total Cooling Capacity [W] will be limited by the maximum rated volume flow per rated total capacity ratio.
   **   ~~~   ** ...DX coil volume flow rate ( m3/s ) = 0.477893
   **   ~~~   ** ...Requested capacity ( W ) = 7658.390
   **   ~~~   ** ...Requested flow/capacity ratio ( m3/s/W ) = 6.240E-005
   **   ~~~   ** ...Maximum flow/capacity ratio ( m3/s/W ) = 6.041E-005
   **   ~~~   ** ...Adjusted capacity ( W ) = 7910.834
   ** Warning ** Coil:WaterHeating:AirToWaterHeatPump:Wrapped "HEAT PUMP WATER HEATER EVAPORATOR": Rated air volume flow rate per watt of rated total water heating capacity is out of range
   **   ~~~   ** Min Rated Vol Flow Per Watt=[4.027E-005], Rated Vol Flow Per Watt=[1.510E-004], Max Rated Vol Flow Per Watt=[8.056E-005]. See Input-Output Reference Manual for valid range.
   ************* SizeFan: : Potential issue with equipment sizing for Fan:OnOff HEAT PUMP WATER HEATER FAN
   **   ~~~   ** User-Specified Maximum Flow Rate [m3/s] = 0.22653
   **   ~~~   ** differs from Design Size Maximum Flow Rate [m3/s] = 7.55250E-002
   **   ~~~   ** This may, or may not, indicate mismatched component sizes.
   **   ~~~   ** Verify that the value entered is intended and is consistent with other components.
   ** Warning ** Water heater = WATER HEATER TANK:  Recovery Efficiency and Energy Factor could not be calculated during the test for standard ratings
   **   ~~~   ** Setpoint was never recovered and/or heater never turned on
   ** Warning ** Check input. Pump nominal power or motor efficiency is set to 0, for pump=MAINS PRESSURE
   ** Warning ** Output:Meter: invalid Key Name="ELECTRIC_RANGE:INTERIOREQUIPMENT:ELECTRICITY" - not found.
   ** Warning ** Output:Meter: invalid Key Name="ELECTRIC_DRYER:INTERIOREQUIPMENT:ELECTRICITY" - not found.
   ** Warning ** Output:Meter: invalid Key Name="HEATRECOVERY:ELECTRICITY" - not found.
   ** Warning ** Output:Meter: invalid Key Name="HEATING:NATURALGAS" - not found.
   ** Warning ** Output:Meter: invalid Key Name="WATERSYSTEMS:NATURALGAS" - not found.
   ** Warning ** Output:Meter: invalid Key Name="PROPANE:FACILITY" - not found.
   ** Warning ** Output:Meter: invalid Key Name="HEATING:PROPANE" - not found.
   ************* Testing Individual Branch Integrity
   ************* All Branches passed integrity testing
   ************* Testing Individual Supply Air Path Integrity
   ************* All Supply Air Paths passed integrity testing
   ************* Testing Individual Return Air Path Integrity
   ************* All Return Air Paths passed integrity testing
   ************* No node connection errors were found.
   ************* Beginning Simulation
   ** Warning ** AirflowNetwork::Solver::validate_distribution: Heat pump water heater is simulated along with an AirflowNetwork but is not included in the AirflowNetwork.
   ** Warning ** CalcEquipmentFlowRates: "TOTAL HOT WATER LOAD" - Target water temperature is greater than the hot water temperature by (4.40 C)
   **   ~~~   **  Environment=EXTREME_WINTER, at Simulation time=01/29 07:00 - 07:15
   **   ~~~   ** ...target water temperature     = 53.33 C
   **   ~~~   ** ...hot water temperature        = 48.93 C
   **   ~~~   ** ...Target water temperature should be less than or equal to the hot water temperature. Verify temperature setpoints and schedules.
   ** Warning ** SimHVAC: Maximum iterations (20) exceeded for all HVAC loops, at ANNUAL, 01/15 09:33 - 09:36
   **   ~~~   ** The solution for one or more of the Air Loop HVAC systems did not appear to converge
   **   ~~~   ** Air System Named = CENTRAL SYSTEM did not converge for mass flow rate
   **   ~~~   ** Check values should be zero. Most Recent values listed first.
   **   ~~~   ** Demand-to-Supply interface mass flow rate check value iteration history trace: 7.787496E-002,7.787496E-002,7.787496E-002,7.787496E-002,7.787496E-002,7.787496E-002,7.787496E-002,7.787496E-002,7.787496E-002,7.787496E-002,
   **   ~~~   ** Supply-to-demand interface deck 1 mass flow rate check value iteration history trace: 7.787496E-002,7.787496E-002,7.787496E-002,7.787496E-002,7.787496E-002,7.787496E-002,7.787496E-002,7.787496E-002,7.787496E-002,7.787496E-002,
   **   ~~~   ** Air System Named = CENTRAL SYSTEM did not converge for energy
   **   ~~~   ** Check values should be zero. Most Recent values listed first.
   **   ~~~   ** Demand-to-Supply interface energy check value iteration history trace: 1543.295911,1543.295911,1543.295911,1543.295911,1543.295911,1543.295911,1543.295911,1543.295911,1543.295911,1543.295911,
   **   ~~~   ** Supply-to-demand interface deck 1 energy check value iteration history trace: 2663.155054,2663.155053,2663.155053,2663.155053,2663.155053,2663.155053,2663.155053,2663.155053,2663.155053,2663.155053,
   ** Warning ** SimHVAC: Maximum iterations (20) exceeded for all HVAC loops, at ANNUAL, 01/30 12:15 - 12:30
   **   ~~~   ** The solution for one or more of the Air Loop HVAC systems did not appear to converge
   **   ~~~   ** Air System Named = CENTRAL SYSTEM did not converge for mass flow rate
   **   ~~~   ** Check values should be zero. Most Recent values listed first.
   **   ~~~   ** Demand-to-Supply interface mass flow rate check value iteration history trace: 6.050006E-002,6.050006E-002,6.050006E-002,6.050006E-002,6.050006E-002,6.050006E-002,6.050006E-002,6.050006E-002,6.050006E-002,6.050006E-002,
   **   ~~~   ** Supply-to-demand interface deck 1 mass flow rate check value iteration history trace: 6.050006E-002,6.050006E-002,6.050006E-002,6.050006E-002,6.050006E-002,6.050006E-002,6.050006E-002,6.050006E-002,6.050006E-002,6.050006E-002,
   **   ~~~   ** Air System Named = CENTRAL SYSTEM did not converge for energy
   **   ~~~   ** Check values should be zero. Most Recent values listed first.
   **   ~~~   ** Demand-to-Supply interface energy check value iteration history trace: 1198.903626,1198.903626,1198.903626,1198.903626,1198.903626,1198.903626,1198.903626,1198.903626,1198.903625,1198.903625,
   **   ~~~   ** Supply-to-demand interface deck 1 energy check value iteration history trace: 2068.881613,2068.881613,2068.881613,2068.881613,2068.881613,2068.881613,2068.881613,2068.881612,2068.881612,2068.881612,
   ** Warning ** SimHVAC: Maximum iterations (20) exceeded for all HVAC loops, at ANNUAL, 02/05 11:06 - 11:09
   **   ~~~   ** The solution for one or more of the Air Loop HVAC systems did not appear to converge
   **   ~~~   ** Air System Named = CENTRAL SYSTEM did not converge for mass flow rate
   **   ~~~   ** Check values should be zero. Most Recent values listed first.
   **   ~~~   ** Demand-to-Supply interface mass flow rate check value iteration history trace: 9.070138E-002,9.070138E-002,9.070138E-002,9.070138E-002,9.070138E-002,9.070138E-002,9.070138E-002,9.070138E-002,9.070138E-002,9.070138E-002,
   **   ~~~   ** Supply-to-demand interface deck 1 mass flow rate check value iteration history trace: 9.070138E-002,9.070138E-002,9.070138E-002,9.070138E-002,9.070138E-002,9.070138E-002,9.070138E-002,9.070138E-002,9.070138E-002,9.070138E-002,
   **   ~~~   ** Air System Named = CENTRAL SYSTEM did not converge for energy
   **   ~~~   ** Check values should be zero. Most Recent values listed first.
   **   ~~~   ** Demand-to-Supply interface energy check value iteration history trace: 1797.783506,1797.783506,1797.783506,1797.783506,1797.783506,1797.783505,1797.783505,1797.783505,1797.783505,1797.783505,
   **   ~~~   ** Supply-to-demand interface deck 1 energy check value iteration history trace: 2808.028021,2808.028021,2808.028021,2808.028021,2808.028021,2808.028020,2808.028020,2808.028020,2808.028020,2808.028020,
   ** Warning ** Temperature out of range [-100. to 200.] (PsyPsatFnTemp)
   **   ~~~   **  Routine=PsyTwbFnTdbWPb, Environment=ANNUAL, at Simulation time=02/07 16:45 - 16:49
   **   ~~~   **  Input Temperature=-3911.73
   ** Warning ** SimHVAC: Maximum iterations (20) exceeded for all HVAC loops, at ANNUAL, 02/21 12:15 - 12:30
   **   ~~~   ** The solution for one or more of the Air Loop HVAC systems did not appear to converge
   **   ~~~   ** Air System Named = CENTRAL SYSTEM did not converge for mass flow rate
   **   ~~~   ** Check values should be zero. Most Recent values listed first.
   **   ~~~   ** Demand-to-Supply interface mass flow rate check value iteration history trace: 8.133955E-002,8.133955E-002,8.133955E-002,8.133955E-002,8.133955E-002,8.133955E-002,8.133955E-002,8.133955E-002,8.133955E-002,8.133955E-002,
   **   ~~~   ** Supply-to-demand interface deck 1 mass flow rate check value iteration history trace: 8.133955E-002,8.133955E-002,8.133955E-002,8.133955E-002,8.133955E-002,8.133955E-002,8.133955E-002,8.133955E-002,8.133955E-002,8.133955E-002,
   **   ~~~   ** Air System Named = CENTRAL SYSTEM did not converge for energy
   **   ~~~   ** Check values should be zero. Most Recent values listed first.
   **   ~~~   ** Demand-to-Supply interface energy check value iteration history trace: 1611.840659,1611.840659,1611.840659,1611.840658,1611.840658,1611.840658,1611.840657,1611.840657,1611.840657,1611.840656,
   **   ~~~   ** Supply-to-demand interface deck 1 energy check value iteration history trace: 2580.411558,2580.411558,2580.411557,2580.411557,2580.411556,2580.411556,2580.411555,2580.411555,2580.411554,2580.411553,
   **   ~~~   ** Node named ZONE INLET NODE shows oscillating temperatures across iterations with a repeated value of 31.571022
   **   ~~~   ** Node named ZONE INLET NODE temperature [C] iteration history trace (most recent first): 31.571022,31.571022,31.571021,31.571021,31.571021,31.571021,31.571021,31.571020,31.571020,31.571020,
   ** Warning ** SimHVAC: Maximum iterations (20) exceeded for all HVAC loops, at ANNUAL, 03/02 08:45 - 09:00
   **   ~~~   ** The solution for one or more of the Air Loop HVAC systems did not appear to converge
   **   ~~~   ** Air System Named = CENTRAL SYSTEM did not converge for mass flow rate
   **   ~~~   ** Check values should be zero. Most Recent values listed first.
   **   ~~~   ** Demand-to-Supply interface mass flow rate check value iteration history trace: 7.064394E-002,7.064394E-002,7.064394E-002,7.064394E-002,7.064394E-002,7.064394E-002,7.064394E-002,7.064394E-002,7.064394E-002,7.064394E-002,
   **   ~~~   ** Supply-to-demand interface deck 1 mass flow rate check value iteration history trace: 7.064394E-002,7.064394E-002,7.064394E-002,7.064394E-002,7.064394E-002,7.064394E-002,7.064394E-002,7.064394E-002,7.064394E-002,7.064394E-002,
   **   ~~~   ** Air System Named = CENTRAL SYSTEM did not converge for energy
   **   ~~~   ** Check values should be zero. Most Recent values listed first.
   **   ~~~   ** Demand-to-Supply interface energy check value iteration history trace: 1399.202860,1399.202860,1399.202860,1399.202860,1399.202860,1399.202860,1399.202860,1399.202860,1399.202860,1399.202860,
   **   ~~~   ** Supply-to-demand interface deck 1 energy check value iteration history trace: 2535.216847,2535.216847,2535.216847,2535.216847,2535.216847,2535.216847,2535.216847,2535.216847,2535.216847,2535.216847,
   **   ~~~   ** Node named ZONE INLET NODE shows oscillating temperatures across iterations with a repeated value of 35.714255
   **   ~~~   ** Node named ZONE INLET NODE temperature [C] iteration history trace (most recent first): 35.714255,35.714255,35.714255,35.714254,35.714254,35.714254,35.714254,35.714253,35.714253,35.714253,
   ** Warning ** SimHVAC: Maximum iterations (20) exceeded for all HVAC loops, at ANNUAL, 03/09 03:45 - 04:00
   **   ~~~   ** The solution for one or more of the Air Loop HVAC systems did not appear to converge
   **   ~~~   ** Air System Named = CENTRAL SYSTEM did not converge for mass flow rate
   **   ~~~   ** Check values should be zero. Most Recent values listed first.
   **   ~~~   ** Demand-to-Supply interface mass flow rate check value iteration history trace: 5.390981E-002,5.390981E-002,5.390981E-002,5.390981E-002,5.390981E-002,5.390981E-002,5.390981E-002,5.390981E-002,5.390981E-002,5.390981E-002,
   **   ~~~   ** Supply-to-demand interface deck 1 mass flow rate check value iteration history trace: 5.390981E-002,5.390981E-002,5.390981E-002,5.390981E-002,5.390981E-002,5.390981E-002,5.390981E-002,5.390981E-002,5.390981E-002,5.390981E-002,
   **   ~~~   ** Air System Named = CENTRAL SYSTEM did not converge for energy
   **   ~~~   ** Check values should be zero. Most Recent values listed first.
   **   ~~~   ** Demand-to-Supply interface energy check value iteration history trace: 999.284394,999.284394,999.284394,999.284394,999.284393,999.284393,999.284393,999.284393,999.284393,999.284393,
   **   ~~~   ** Supply-to-demand interface deck 1 energy check value iteration history trace: 1826.972656,1826.972656,1826.972655,1826.972655,1826.972655,1826.972655,1826.972654,1826.972654,1826.972654,1826.972654,
   **   ~~~   ** Node named ZONE INLET NODE shows oscillating temperatures across iterations with a repeated value of 33.726064
   **   ~~~   ** Node named ZONE INLET NODE temperature [C] iteration history trace (most recent first): 33.726064,33.726064,33.726064,33.726064,33.726063,33.726063,33.726063,33.726063,33.726063,33.726062,
   ** Warning ** SimHVAC: Maximum iterations (20) exceeded for all HVAC loops, at ANNUAL, 04/06 10:08 - 10:15
   **   ~~~   ** The solution for one or more of the Air Loop HVAC systems did not appear to converge
   **   ~~~   ** Air System Named = CENTRAL SYSTEM did not converge for mass flow rate
   **   ~~~   ** Check values should be zero. Most Recent values listed first.
   **   ~~~   ** Demand-to-Supply interface mass flow rate check value iteration history trace: 6.569820E-002,6.569820E-002,6.569820E-002,6.569820E-002,6.569820E-002,6.569820E-002,6.569820E-002,6.569820E-002,6.569820E-002,6.569820E-002,
   **   ~~~   ** Supply-to-demand interface deck 1 mass flow rate check value iteration history trace: 6.569820E-002,6.569820E-002,6.569820E-002,6.569820E-002,6.569820E-002,6.569820E-002,6.569820E-002,6.569820E-002,6.569820E-002,6.569820E-002,
   **   ~~~   ** Air System Named = CENTRAL SYSTEM did not converge for energy
   **   ~~~   ** Check values should be zero. Most Recent values listed first.
   **   ~~~   ** Demand-to-Supply interface energy check value iteration history trace: 1290.534491,1290.534490,1290.534490,1290.534490,1290.534490,1290.534490,1290.534490,1290.534490,1290.534490,1290.534490,
   **   ~~~   ** Supply-to-demand interface deck 1 energy check value iteration history trace: 2292.113410,2292.113410,2292.113409,2292.113409,2292.113409,2292.113409,2292.113409,2292.113409,2292.113409,2292.113409,
   ** Warning ** SimHVAC: Maximum iterations (20) exceeded for all HVAC loops, at ANNUAL, 04/28 10:15 - 10:30
   **   ~~~   ** The solution for one or more of the Air Loop HVAC systems did not appear to converge
   **   ~~~   ** Air System Named = CENTRAL SYSTEM did not converge for mass flow rate
   **   ~~~   ** Check values should be zero. Most Recent values listed first.
   **   ~~~   ** Demand-to-Supply interface mass flow rate check value iteration history trace: 3.921023E-002,3.921023E-002,3.921023E-002,3.921023E-002,3.921023E-002,3.921023E-002,3.921023E-002,3.921023E-002,3.921023E-002,3.921023E-002,
   **   ~~~   ** Supply-to-demand interface deck 1 mass flow rate check value iteration history trace: 3.921023E-002,3.921023E-002,3.921023E-002,3.921023E-002,3.921023E-002,3.921023E-002,3.921023E-002,3.921023E-002,3.921023E-002,3.921023E-002,
   **   ~~~   ** Air System Named = CENTRAL SYSTEM did not converge for energy
   **   ~~~   ** Check values should be zero. Most Recent values listed first.
   **   ~~~   ** Demand-to-Supply interface energy check value iteration history trace: 933.243019,933.243019,933.243019,933.243019,933.243020,933.243020,933.243020,933.243020,933.243020,933.243020,
   **   ~~~   ** Supply-to-demand interface deck 1 energy check value iteration history trace: 395.423062,395.423062,395.423062,395.423062,395.423062,395.423062,395.423062,395.423062,395.423062,395.423062,
   ** Warning ** SimHVAC: Maximum iterations (20) exceeded for all HVAC loops, at ANNUAL, 04/28 10:41 - 10:45
   **   ~~~   ** The solution for one or more of the Air Loop HVAC systems did not appear to converge
   **   ~~~   ** Air System Named = CENTRAL SYSTEM did not converge for mass flow rate
   **   ~~~   ** Check values should be zero. Most Recent values listed first.
   **   ~~~   ** Demand-to-Supply interface mass flow rate check value iteration history trace: 0.135313,0.135313,0.135313,0.135313,0.135313,0.135313,0.135313,0.135313,0.135313,0.135313,
   **   ~~~   ** Supply-to-demand interface deck 1 mass flow rate check value iteration history trace: 0.135313,0.135313,0.135313,0.135313,0.135313,0.135313,0.135313,0.135313,0.135313,0.135313,
   **   ~~~   ** Air System Named = CENTRAL SYSTEM did not converge for energy
   **   ~~~   ** Check values should be zero. Most Recent values listed first.
   **   ~~~   ** Demand-to-Supply interface energy check value iteration history trace: 3209.089432,3209.089432,3209.089432,3209.089432,3209.089432,3209.089433,3209.089433,3209.089433,3209.089433,3209.089433,
   **   ~~~   ** Supply-to-demand interface deck 1 energy check value iteration history trace: 1356.112980,1356.112980,1356.112980,1356.112980,1356.112980,1356.112980,1356.112980,1356.112980,1356.112980,1356.112980,
   ** Warning ** SimHVAC: Maximum iterations (20) exceeded for all HVAC loops, at ANNUAL, 05/05 07:26 - 07:30
   **   ~~~   ** The solution for one or more of the Air Loop HVAC systems did not appear to converge
   **   ~~~   ** Air System Named = CENTRAL SYSTEM did not converge for mass flow rate
   **   ~~~   ** Check values should be zero. Most Recent values listed first.
   **   ~~~   ** Demand-to-Supply interface mass flow rate check value iteration history trace: 0.219738,0.219738,0.219738,0.219738,0.219738,0.219738,0.219738,0.219738,0.219738,0.219738,
   **   ~~~   ** Supply-to-demand interface deck 1 mass flow rate check value iteration history trace: 0.219738,0.219738,0.219738,0.219738,0.219738,0.219738,0.219738,0.219738,0.219738,0.219738,
   **   ~~~   ** Air System Named = CENTRAL SYSTEM did not converge for energy
   **   ~~~   ** Check values should be zero. Most Recent values listed first.
   **   ~~~   ** Demand-to-Supply interface energy check value iteration history trace: 5233.203952,5233.203953,5233.203954,5233.203956,5233.203957,5233.203958,5233.203960,5233.203961,5233.203962,5233.203963,
   **   ~~~   ** Supply-to-demand interface deck 1 energy check value iteration history trace: 2741.872834,2741.872835,2741.872835,2741.872836,2741.872837,2741.872837,2741.872838,2741.872839,2741.872839,2741.872840,
   ** Warning ** SimHVAC: Maximum iterations (20) exceeded for all HVAC loops, at ANNUAL, 05/09 17:55 - 18:00
   **   ~~~   ** The solution for one or more of the Air Loop HVAC systems did not appear to converge
   **   ~~~   ** Air System Named = CENTRAL SYSTEM did not converge for mass flow rate
   **   ~~~   ** Check values should be zero. Most Recent values listed first.
   **   ~~~   ** Demand-to-Supply interface mass flow rate check value iteration history trace: 0.314851,0.314851,0.314851,0.314851,0.314851,0.314851,0.314851,0.314851,0.314851,0.314851,
   **   ~~~   ** Supply-to-demand interface deck 1 mass flow rate check value iteration history trace: 0.314851,0.314851,0.314851,0.314851,0.314851,0.314851,0.314851,0.314851,0.314851,0.314851,
   **   ~~~   ** Air System Named = CENTRAL SYSTEM did not converge for energy
   **   ~~~   ** Check values should be zero. Most Recent values listed first.
   **   ~~~   ** Demand-to-Supply interface energy check value iteration history trace: 7609.018417,7609.018418,7609.018418,7609.018419,7609.018419,7609.018420,7609.018420,7609.018421,7609.018421,7609.018422,
   **   ~~~   ** Supply-to-demand interface deck 1 energy check value iteration history trace: 3609.384006,3609.384006,3609.384007,3609.384007,3609.384007,3609.384007,3609.384008,3609.384008,3609.384008,3609.384008,
   ** Warning ** SimHVAC: Maximum iterations (20) exceeded for all HVAC loops, at ANNUAL, 05/11 10:30 - 10:45
   **   ~~~   ** The solution for one or more of the Air Loop HVAC systems did not appear to converge
   **   ~~~   ** Air System Named = CENTRAL SYSTEM did not converge for mass flow rate
   **   ~~~   ** Check values should be zero. Most Recent values listed first.
   **   ~~~   ** Demand-to-Supply interface mass flow rate check value iteration history trace: 3.044174E-002,3.044174E-002,3.044174E-002,3.044174E-002,3.044174E-002,3.044174E-002,3.044174E-002,3.044174E-002,3.044174E-002,3.044174E-002,
   **   ~~~   ** Supply-to-demand interface deck 1 mass flow rate check value iteration history trace: 3.044174E-002,3.044174E-002,3.044174E-002,3.044174E-002,3.044174E-002,3.044174E-002,3.044174E-002,3.044174E-002,3.044174E-002,3.044174E-002,
   **   ~~~   ** Air System Named = CENTRAL SYSTEM did not converge for energy
   **   ~~~   ** Check values should be zero. Most Recent values listed first.
   **   ~~~   ** Demand-to-Supply interface energy check value iteration history trace: 716.460541,716.460541,716.460541,716.460541,716.460541,716.460542,716.460542,716.460542,716.460542,716.460542,
   **   ~~~   ** Supply-to-demand interface deck 1 energy check value iteration history trace: 359.575551,359.575551,359.575552,359.575552,359.575552,359.575552,359.575552,359.575552,359.575552,359.575552,
   ** Warning ** SimHVAC: Maximum iterations (20) exceeded for all HVAC loops, at ANNUAL, 05/19 12:26 - 12:30
   **   ~~~   ** The solution for one or more of the Air Loop HVAC systems did not appear to converge
   **   ~~~   ** Air System Named = CENTRAL SYSTEM did not converge for mass flow rate
   **   ~~~   ** Check values should be zero. Most Recent values listed first.
   **   ~~~   ** Demand-to-Supply interface mass flow rate check value iteration history trace: 0.453793,0.453793,0.453793,0.453793,0.453793,0.453793,0.453793,0.453793,0.453793,0.453793,
   **   ~~~   ** Supply-to-demand interface deck 1 mass flow rate check value iteration history trace: 0.453793,0.453793,0.453793,0.453793,0.453793,0.453793,0.453793,0.453793,0.453793,0.453793,
   **   ~~~   ** Air System Named = CENTRAL SYSTEM did not converge for energy
   **   ~~~   ** Check values should be zero. Most Recent values listed first.
   **   ~~~   ** Demand-to-Supply interface energy check value iteration history trace: 10949.626962,10949.626963,10949.626964,10949.626965,10949.626966,10949.626967,10949.626967,10949.626968,10949.626969,10949.626970,
   **   ~~~   ** Supply-to-demand interface deck 1 energy check value iteration history trace: 6372.014496,6372.014497,6372.014497,6372.014498,6372.014498,6372.014499,6372.014499,6372.014499,6372.014500,6372.014500,
   ** Warning ** SimHVAC: Maximum iterations (20) exceeded for all HVAC loops, at ANNUAL, 05/20 23:45 - 24:00
   **   ~~~   ** The solution for one or more of the Air Loop HVAC systems did not appear to converge
   **   ~~~   ** Air System Named = CENTRAL SYSTEM did not converge for mass flow rate
   **   ~~~   ** Check values should be zero. Most Recent values listed first.
   **   ~~~   ** Demand-to-Supply interface mass flow rate check value iteration history trace: 7.881426E-002,7.881426E-002,7.881426E-002,7.881426E-002,7.881426E-002,7.881426E-002,7.881426E-002,7.881426E-002,7.881426E-002,7.881426E-002,
   **   ~~~   ** Supply-to-demand interface deck 1 mass flow rate check value iteration history trace: 7.881426E-002,7.881426E-002,7.881426E-002,7.881426E-002,7.881426E-002,7.881426E-002,7.881426E-002,7.881426E-002,7.881426E-002,7.881426E-002,
   **   ~~~   ** Air System Named = CENTRAL SYSTEM did not converge for energy
   **   ~~~   ** Check values should be zero. Most Recent values listed first.
   **   ~~~   ** Demand-to-Supply interface energy check value iteration history trace: 1978.880144,1978.880145,1978.880145,1978.880145,1978.880146,1978.880146,1978.880146,1978.880147,1978.880147,1978.880147,
   **   ~~~   ** Supply-to-demand interface deck 1 energy check value iteration history trace: 969.879902,969.879902,969.879902,969.879902,969.879902,969.879902,969.879903,969.879903,969.879903,969.879903,
   ************* Simulation Error Summary *************
   ** Warning ** The following Report Variables were requested but not generated -- check.rdd file
   **   ~~~   ** Either the IDF did not contain these elements, the variable name is misspelled,
   **   ~~~   ** or the requested variable is an advanced output which requires Output : Diagnostics, DisplayAdvancedReportVariables;
   ************* Key=*, VarName=BASEBOARD TOTAL HEATING ENERGY, Frequency=
   ************* Key=*, VarName=WATER HEATER NATURALGAS ENERGY, Frequency=
   ************* Key=*, VarName=COOLING COIL TOTAL HEATING ENERGY, Frequency=
   ************* There are 34 unused schedules in input.
   ************* There are 388 unused week schedules in input.
   ************* There are 396 unused day schedules in input.
   ************* Use Output:Diagnostics,DisplayUnusedSchedules; to see them.
   *************
   ************* ===== Recurring Error Summary =====
   ************* The following recurring error messages occurred.
   *************
   *************  ** Warning ** "TOTAL HOT WATER LOAD" - Target water temperature should be less than or equal to the hot water temperature error continues...
   *************  **   ~~~   **   This error occurred 156507 total times;
   *************  **   ~~~   **   during Warmup 0 times;
   *************  **   ~~~   **   during Sizing 0 times.
   *************  **   ~~~   **   Max=11.831594  Min=1.331592E-003
   *************
   *************  ** Warning ** Temperature out of range [-100. to 200.] (PsyPsatFnTemp)
   *************  **   ~~~   **   This error occurred 2 total times;
   *************  **   ~~~   **   during Warmup 0 times;
   *************  **   ~~~   **   during Sizing 0 times.
   *************  **   ~~~   **   Max=-103.308792 C  Min=-3911.73645 C
   *************
   *************  ** Warning ** SimHVAC: Exceeding Maximum iterations for all HVAC loops, during ANNUAL continues
   *************  **   ~~~   **   This error occurred 16 total times;
   *************  **   ~~~   **   during Warmup 0 times;
   *************  **   ~~~   **   during Sizing 0 times.
   *************
   *************
   ************* ===== Final Error Summary =====
   ************* The following error categories occurred.  Consider correcting or noting.
   ************* Nominally Unused Constructions
   ************* ..The nominally unused constructions warning is provided to alert you to potential conditions that can cause
   ************* ..extra time during simulation. Each construction is calculated by the algorithm indicated in the HeatBalanceAlgorithm
   ************* ..object. You may remove the constructions indicated (when you use the DisplayExtraWarnings option).
   *************
   ************* EnergyPlus Warmup Error Summary. During Warmup: 1 Warning; 0 Severe Errors.
   ************* EnergyPlus Sizing Error Summary. During Sizing: 4 Warning; 0 Severe Errors.
   ************* EnergyPlus Completed Successfully-- 156557 Warning; 0 Severe Errors; Elapsed Time=00hr 01min 34.68sec
