Program Version,EnergyPlus, Version 22.2.0-c249759bad, YMD=2023.09.01 19:29,
   ************* Beginning Zone Sizing Calculations
   ** Warning ** ProcessScheduleInput: Schedule:Constant="ALWAYS ON DISCRETE", Schedule Type Limits Name="ONOFF" not found -- will not be validated
   ** Warning ** Foundation:Kiva="KIVA FOUNDATION", no Interior Horizontal Insulation Material Name defined
   **   ~~~   ** Interior Horizontal Insulation Depth will not be used.
   ** Warning ** CheckUsedConstructions: There are 15 nominally unused constructions in input.
   **   ~~~   ** Each Unused construction is shown.
   ************* Construction=INTERIOR FLOOR
   ************* Construction=INTERIOR WINDOW
   ************* Construction=EXTERIOR DOOR
   ************* Construction=INTERIOR DOOR
   ************* Construction=GABLE CONSTRUCTION
   ************* Construction=CRAWL_FLOOR
   ************* Construction=INSULATED PIPE
   ************* Construction=PLAIN PIPE
   ************* Construction=TDD PIPE
   ************* Construction=TDD DOME
   ************* Construction=TDD DIFFUSER
   ************* Construction=CRAWL WALL
   ************* Construction=CEILING-FLOOR-LAYER
   ************* Construction=SLAB CONSTRUCTION W FULL R10 INSULATION
   ************* Construction=SLAB CONSTRUCTION W FULL R5 INSULATION
   ** Warning ** GetDXCoils: Coil:Heating:DX:SingleSpeed="DX_HEATING_COIL" curve values
   **   ~~~   ** ... Defrost Energy Input Ratio Function of Temperature Curve Name = DEFROSTEIR output is not equal to 1.0 (+ or - 10%) at rated conditions.
   **   ~~~   ** ... Curve output at rated conditions = 0.152
   ************* Beginning System Sizing Calculations
   ************* Beginning Plant Sizing Calculations
   ** Warning ** SizeDXCoil Coil:Cooling:DX:SingleSpeed DX_COOLING_COIL
   **   ~~~   ** ...Gross Rated Total Cooling Capacity [W] will be limited by the maximum rated volume flow per rated total capacity ratio.
   **   ~~~   ** ...DX coil volume flow rate ( m3/s ) = 0.392104
   **   ~~~   ** ...Requested capacity ( W ) = 5977.865
   **   ~~~   ** ...Requested flow/capacity ratio ( m3/s/W ) = 6.559E-005
   **   ~~~   ** ...Maximum flow/capacity ratio ( m3/s/W ) = 6.041E-005
   **   ~~~   ** ...Adjusted capacity ( W ) = 6490.728
   ** Warning ** Coil:WaterHeating:AirToWaterHeatPump:Wrapped "HEAT PUMP WATER HEATER EVAPORATOR": Rated air volume flow rate per watt of rated total water heating capacity is out of range
   **   ~~~   ** Min Rated Vol Flow Per Watt=[4.027E-005], Rated Vol Flow Per Watt=[1.510E-004], Max Rated Vol Flow Per Watt=[8.056E-005]. See Input-Output Reference Manual for valid range.
   ************* SizeFan: : Potential issue with equipment sizing for Fan:OnOff HEAT PUMP WATER HEATER FAN
   **   ~~~   ** User-Specified Maximum Flow Rate [m3/s] = 0.22653
   **   ~~~   ** differs from Design Size Maximum Flow Rate [m3/s] = 7.55250E-002
   **   ~~~   ** This may, or may not, indicate mismatched component sizes.
   **   ~~~   ** Verify that the value entered is intended and is consistent with other components.
   ** Warning ** Water heater = WATER HEATER TANK:  Recovery Efficiency and Energy Factor could not be calculated during the test for standard ratings
   **   ~~~   ** Setpoint was never recovered and/or heater never turned on
   ** Warning ** Check input. Pump nominal power or motor efficiency is set to 0, for pump=MAINS PRESSURE
   ** Warning ** Output:Meter: invalid Key Name="ELECTRIC_RANGE:INTERIOREQUIPMENT:ELECTRICITY" - not found.
   ** Warning ** Output:Meter: invalid Key Name="ELECTRIC_DRYER:INTERIOREQUIPMENT:ELECTRICITY" - not found.
   ** Warning ** Output:Meter: invalid Key Name="HEATRECOVERY:ELECTRICITY" - not found.
   ** Warning ** Output:Meter: invalid Key Name="HEATING:NATURALGAS" - not found.
   ** Warning ** Output:Meter: invalid Key Name="WATERSYSTEMS:NATURALGAS" - not found.
   ** Warning ** Output:Meter: invalid Key Name="PROPANE:FACILITY" - not found.
   ** Warning ** Output:Meter: invalid Key Name="HEATING:PROPANE" - not found.
   ************* Testing Individual Branch Integrity
   ************* All Branches passed integrity testing
   ************* Testing Individual Supply Air Path Integrity
   ************* All Supply Air Paths passed integrity testing
   ************* Testing Individual Return Air Path Integrity
   ************* All Return Air Paths passed integrity testing
   ************* No node connection errors were found.
   ************* Beginning Simulation
   ** Warning ** AirflowNetwork::Solver::validate_distribution: Heat pump water heater is simulated along with an AirflowNetwork but is not included in the AirflowNetwork.
   ** Warning ** CalcEquipmentFlowRates: "TOTAL HOT WATER LOAD" - Target water temperature is greater than the hot water temperature by (0.27 C)
   **   ~~~   **  Environment=EXTREME_WINTER, at Simulation time=12/15 06:00 - 06:15
   **   ~~~   ** ...target water temperature     = 53.33 C
   **   ~~~   ** ...hot water temperature        = 53.06 C
   **   ~~~   ** ...Target water temperature should be less than or equal to the hot water temperature. Verify temperature setpoints and schedules.
   ** Warning ** SimHVAC: Maximum iterations (20) exceeded for all HVAC loops, at ANNUAL, 02/07 13:40 - 13:45
   **   ~~~   ** The solution for one or more of the Air Loop HVAC systems did not appear to converge
   **   ~~~   ** Air System Named = CENTRAL SYSTEM did not converge for mass flow rate
   **   ~~~   ** Check values should be zero. Most Recent values listed first.
   **   ~~~   ** Demand-to-Supply interface mass flow rate check value iteration history trace: 6.372445E-002,6.372445E-002,6.372445E-002,6.372445E-002,6.372445E-002,6.372445E-002,6.372445E-002,6.372445E-002,6.372445E-002,6.372445E-002,
   **   ~~~   ** Supply-to-demand interface deck 1 mass flow rate check value iteration history trace: 6.372445E-002,6.372445E-002,6.372445E-002,6.372445E-002,6.372445E-002,6.372445E-002,6.372445E-002,6.372445E-002,6.372445E-002,6.372445E-002,
   **   ~~~   ** Air System Named = CENTRAL SYSTEM did not converge for energy
   **   ~~~   ** Check values should be zero. Most Recent values listed first.
   **   ~~~   ** Demand-to-Supply interface energy check value iteration history trace: 1262.780575,1262.780575,1262.780575,1262.780575,1262.780575,1262.780575,1262.780575,1262.780575,1262.780575,1262.780575,
   **   ~~~   ** Supply-to-demand interface deck 1 energy check value iteration history trace: 2163.485654,2163.485654,2163.485654,2163.485654,2163.485654,2163.485653,2163.485653,2163.485653,2163.485653,2163.485653,
   ** Warning ** SimHVAC: Maximum iterations (20) exceeded for all HVAC loops, at ANNUAL, 03/13 17:38 - 17:45
   **   ~~~   ** The solution for one or more of the Air Loop HVAC systems did not appear to converge
   **   ~~~   ** Air System Named = CENTRAL SYSTEM did not converge for mass flow rate
   **   ~~~   ** Check values should be zero. Most Recent values listed first.
   **   ~~~   ** Demand-to-Supply interface mass flow rate check value iteration history trace: 7.669033E-002,7.669033E-002,7.669033E-002,7.669033E-002,7.669033E-002,7.669033E-002,7.669033E-002,7.669033E-002,7.669033E-002,7.669033E-002,
   **   ~~~   ** Supply-to-demand interface deck 1 mass flow rate check value iteration history trace: 7.669033E-002,7.669033E-002,7.669033E-002,7.669033E-002,7.669033E-002,7.669033E-002,7.669033E-002,7.669033E-002,7.669033E-002,7.669033E-002,
   **   ~~~   ** Air System Named = CENTRAL SYSTEM did not converge for energy
   **   ~~~   ** Check values should be zero. Most Recent values listed first.
   **   ~~~   ** Demand-to-Supply interface energy check value iteration history trace: 1515.010414,1515.010414,1515.010414,1515.010414,1515.010414,1515.010414,1515.010414,1515.010413,1515.010413,1515.010413,
   **   ~~~   ** Supply-to-demand interface deck 1 energy check value iteration history trace: 2298.256098,2298.256098,2298.256097,2298.256097,2298.256097,2298.256097,2298.256097,2298.256097,2298.256097,2298.256096,
   ** Warning ** SimHVAC: Maximum iterations (20) exceeded for all HVAC loops, at ANNUAL, 03/26 20:53 - 21:00
   **   ~~~   ** The solution for one or more of the Air Loop HVAC systems did not appear to converge
   **   ~~~   ** Air System Named = CENTRAL SYSTEM did not converge for mass flow rate
   **   ~~~   ** Check values should be zero. Most Recent values listed first.
   **   ~~~   ** Demand-to-Supply interface mass flow rate check value iteration history trace: 0.114287,0.114287,0.114287,0.114287,0.114287,0.114287,0.114287,0.114287,0.114287,0.114287,
   **   ~~~   ** Supply-to-demand interface deck 1 mass flow rate check value iteration history trace: 0.114287,0.114287,0.114287,0.114287,0.114287,0.114287,0.114287,0.114287,0.114287,0.114287,
   **   ~~~   ** Air System Named = CENTRAL SYSTEM did not converge for energy
   **   ~~~   ** Check values should be zero. Most Recent values listed first.
   **   ~~~   ** Demand-to-Supply interface energy check value iteration history trace: 2262.612433,2262.612433,2262.612433,2262.612433,2262.612432,2262.612432,2262.612432,2262.612432,2262.612432,2262.612432,
   **   ~~~   ** Supply-to-demand interface deck 1 energy check value iteration history trace: 3328.288356,3328.288356,3328.288355,3328.288355,3328.288355,3328.288355,3328.288354,3328.288354,3328.288354,3328.288354,
   ** Warning ** SimHVAC: Maximum iterations (20) exceeded for all HVAC loops, at ANNUAL, 04/08 08:48 - 08:51
   **   ~~~   ** The solution for one or more of the Air Loop HVAC systems did not appear to converge
   **   ~~~   ** Air System Named = CENTRAL SYSTEM did not converge for mass flow rate
   **   ~~~   ** Check values should be zero. Most Recent values listed first.
   **   ~~~   ** Demand-to-Supply interface mass flow rate check value iteration history trace: 6.800318E-002,6.800318E-002,6.800318E-002,6.800318E-002,6.800318E-002,6.800318E-002,6.800318E-002,6.800318E-002,6.800318E-002,6.800318E-002,
   **   ~~~   ** Supply-to-demand interface deck 1 mass flow rate check value iteration history trace: 6.800318E-002,6.800318E-002,6.800318E-002,6.800318E-002,6.800318E-002,6.800318E-002,6.800318E-002,6.800318E-002,6.800318E-002,6.800318E-002,
   **   ~~~   ** Air System Named = CENTRAL SYSTEM did not converge for energy
   **   ~~~   ** Check values should be zero. Most Recent values listed first.
   **   ~~~   ** Demand-to-Supply interface energy check value iteration history trace: 1347.626309,1347.626309,1347.626309,1347.626308,1347.626308,1347.626308,1347.626308,1347.626308,1347.626308,1347.626308,
   **   ~~~   ** Supply-to-demand interface deck 1 energy check value iteration history trace: 2403.151028,2403.151028,2403.151028,2403.151028,2403.151028,2403.151028,2403.151028,2403.151028,2403.151028,2403.151028,
   ** Warning ** SimHVAC: Maximum iterations (20) exceeded for all HVAC loops, at ANNUAL, 04/29 09:30 - 09:32
   **   ~~~   ** The solution for one or more of the Air Loop HVAC systems did not appear to converge
   **   ~~~   ** Air System Named = CENTRAL SYSTEM did not converge for mass flow rate
   **   ~~~   ** Check values should be zero. Most Recent values listed first.
   **   ~~~   ** Demand-to-Supply interface mass flow rate check value iteration history trace: 8.058065E-002,8.058065E-002,8.058065E-002,8.058065E-002,8.058065E-002,8.058065E-002,8.058065E-002,8.058065E-002,8.058065E-002,8.058065E-002,
   **   ~~~   ** Supply-to-demand interface deck 1 mass flow rate check value iteration history trace: 8.058065E-002,8.058065E-002,8.058065E-002,8.058065E-002,8.058065E-002,8.058065E-002,8.058065E-002,8.058065E-002,8.058065E-002,8.058065E-002,
   **   ~~~   ** Air System Named = CENTRAL SYSTEM did not converge for energy
   **   ~~~   ** Check values should be zero. Most Recent values listed first.
   **   ~~~   ** Demand-to-Supply interface energy check value iteration history trace: 1596.816950,1596.816950,1596.816950,1596.816950,1596.816950,1596.816949,1596.816949,1596.816949,1596.816949,1596.816949,
   **   ~~~   ** Supply-to-demand interface deck 1 energy check value iteration history trace: 2724.527154,2724.527153,2724.527153,2724.527153,2724.527153,2724.527153,2724.527153,2724.527153,2724.527152,2724.527152,
   ** Warning ** SimHVAC: Maximum iterations (20) exceeded for all HVAC loops, at ANNUAL, 04/30 11:30 - 11:38
   **   ~~~   ** The solution for one or more of the Air Loop HVAC systems did not appear to converge
   **   ~~~   ** Air System Named = CENTRAL SYSTEM did not converge for mass flow rate
   **   ~~~   ** Check values should be zero. Most Recent values listed first.
   **   ~~~   ** Demand-to-Supply interface mass flow rate check value iteration history trace: 8.340662E-002,8.340662E-002,8.340662E-002,8.340662E-002,8.340662E-002,8.340662E-002,8.340662E-002,8.340662E-002,8.340662E-002,8.340662E-002,
   **   ~~~   ** Supply-to-demand interface deck 1 mass flow rate check value iteration history trace: 8.340662E-002,8.340662E-002,8.340662E-002,8.340662E-002,8.340662E-002,8.340662E-002,8.340662E-002,8.340662E-002,8.340662E-002,8.340662E-002,
   **   ~~~   ** Air System Named = CENTRAL SYSTEM did not converge for energy
   **   ~~~   ** Check values should be zero. Most Recent values listed first.
   **   ~~~   ** Demand-to-Supply interface energy check value iteration history trace: 1654.362177,1654.362177,1654.362177,1654.362176,1654.362176,1654.362176,1654.362176,1654.362176,1654.362176,1654.362176,
   **   ~~~   ** Supply-to-demand interface deck 1 energy check value iteration history trace: 2617.263410,2617.263410,2617.263410,2617.263410,2617.263410,2617.263409,2617.263409,2617.263409,2617.263409,2617.263409,
   ** Warning ** SimHVAC: Maximum iterations (20) exceeded for all HVAC loops, at ANNUAL, 05/01 08:15 - 08:30
   **   ~~~   ** The solution for one or more of the Air Loop HVAC systems did not appear to converge
   **   ~~~   ** Air System Named = CENTRAL SYSTEM did not converge for mass flow rate
   **   ~~~   ** Check values should be zero. Most Recent values listed first.
   **   ~~~   ** Demand-to-Supply interface mass flow rate check value iteration history trace: 5.206997E-002,5.206997E-002,5.206997E-002,5.206997E-002,5.206997E-002,5.206997E-002,5.206997E-002,5.206997E-002,5.206997E-002,5.206997E-002,
   **   ~~~   ** Supply-to-demand interface deck 1 mass flow rate check value iteration history trace: 5.206997E-002,5.206997E-002,5.206997E-002,5.206997E-002,5.206997E-002,5.206997E-002,5.206997E-002,5.206997E-002,5.206997E-002,5.206997E-002,
   **   ~~~   ** Air System Named = CENTRAL SYSTEM did not converge for energy
   **   ~~~   ** Check values should be zero. Most Recent values listed first.
   **   ~~~   ** Demand-to-Supply interface energy check value iteration history trace: 1031.834965,1031.834965,1031.834965,1031.834965,1031.834964,1031.834964,1031.834964,1031.834964,1031.834964,1031.834964,
   **   ~~~   ** Supply-to-demand interface deck 1 energy check value iteration history trace: 1927.240762,1927.240762,1927.240762,1927.240761,1927.240761,1927.240761,1927.240761,1927.240761,1927.240761,1927.240761,
   ** Warning ** SimHVAC: Maximum iterations (20) exceeded for all HVAC loops, at ANNUAL, 05/03 01:30 - 01:45
   **   ~~~   ** The solution for one or more of the Air Loop HVAC systems did not appear to converge
   **   ~~~   ** Air System Named = CENTRAL SYSTEM did not converge for mass flow rate
   **   ~~~   ** Check values should be zero. Most Recent values listed first.
   **   ~~~   ** Demand-to-Supply interface mass flow rate check value iteration history trace: 7.755617E-002,7.755617E-002,7.755617E-002,7.755617E-002,7.755617E-002,7.755617E-002,7.755617E-002,7.755617E-002,7.755617E-002,7.755617E-002,
   **   ~~~   ** Supply-to-demand interface deck 1 mass flow rate check value iteration history trace: 7.755617E-002,7.755617E-002,7.755617E-002,7.755617E-002,7.755617E-002,7.755617E-002,7.755617E-002,7.755617E-002,7.755617E-002,7.755617E-002,
   **   ~~~   ** Air System Named = CENTRAL SYSTEM did not converge for energy
   **   ~~~   ** Check values should be zero. Most Recent values listed first.
   **   ~~~   ** Demand-to-Supply interface energy check value iteration history trace: 1447.955102,1447.955102,1447.955102,1447.955102,1447.955102,1447.955102,1447.955102,1447.955102,1447.955101,1447.955101,
   **   ~~~   ** Supply-to-demand interface deck 1 energy check value iteration history trace: 2254.305225,2254.305225,2254.305225,2254.305225,2254.305225,2254.305225,2254.305225,2254.305224,2254.305224,2254.305224,
   ** Warning ** SimHVAC: Maximum iterations (20) exceeded for all HVAC loops, at ANNUAL, 05/14 10:45 - 10:52
   **   ~~~   ** The solution for one or more of the Air Loop HVAC systems did not appear to converge
   **   ~~~   ** Air System Named = CENTRAL SYSTEM did not converge for mass flow rate
   **   ~~~   ** Check values should be zero. Most Recent values listed first.
   **   ~~~   ** Demand-to-Supply interface mass flow rate check value iteration history trace: 5.902807E-002,5.902807E-002,5.902807E-002,5.902807E-002,5.902807E-002,5.902807E-002,5.902807E-002,5.902807E-002,5.902807E-002,5.902807E-002,
   **   ~~~   ** Supply-to-demand interface deck 1 mass flow rate check value iteration history trace: 5.902807E-002,5.902807E-002,5.902807E-002,5.902807E-002,5.902807E-002,5.902807E-002,5.902807E-002,5.902807E-002,5.902807E-002,5.902807E-002,
   **   ~~~   ** Air System Named = CENTRAL SYSTEM did not converge for energy
   **   ~~~   ** Check values should be zero. Most Recent values listed first.
   **   ~~~   ** Demand-to-Supply interface energy check value iteration history trace: 1166.238618,1166.238618,1166.238618,1166.238618,1166.238618,1166.238618,1166.238618,1166.238618,1166.238617,1166.238617,
   **   ~~~   ** Supply-to-demand interface deck 1 energy check value iteration history trace: 2079.790955,2079.790955,2079.790955,2079.790955,2079.790955,2079.790955,2079.790955,2079.790955,2079.790955,2079.790955,
   ** Warning ** SimHVAC: Maximum iterations (20) exceeded for all HVAC loops, at ANNUAL, 05/14 12:00 - 12:15
   **   ~~~   ** The solution for one or more of the Air Loop HVAC systems did not appear to converge
   **   ~~~   ** Air System Named = CENTRAL SYSTEM did not converge for mass flow rate
   **   ~~~   ** Check values should be zero. Most Recent values listed first.
   **   ~~~   ** Demand-to-Supply interface mass flow rate check value iteration history trace: 5.252996E-002,5.252996E-002,5.252996E-002,5.252996E-002,5.252996E-002,5.252996E-002,5.252996E-002,5.252996E-002,5.252996E-002,5.252996E-002,
   **   ~~~   ** Supply-to-demand interface deck 1 mass flow rate check value iteration history trace: 5.252996E-002,5.252996E-002,5.252996E-002,5.252996E-002,5.252996E-002,5.252996E-002,5.252996E-002,5.252996E-002,5.252996E-002,5.252996E-002,
   **   ~~~   ** Air System Named = CENTRAL SYSTEM did not converge for energy
   **   ~~~   ** Check values should be zero. Most Recent values listed first.
   **   ~~~   ** Demand-to-Supply interface energy check value iteration history trace: 1025.509083,1025.509083,1025.509083,1025.509083,1025.509083,1025.509083,1025.509083,1025.509083,1025.509083,1025.509083,
   **   ~~~   ** Supply-to-demand interface deck 1 energy check value iteration history trace: 1837.738896,1837.738896,1837.738896,1837.738896,1837.738896,1837.738895,1837.738895,1837.738895,1837.738895,1837.738895,
   ** Warning ** SimHVAC: Maximum iterations (20) exceeded for all HVAC loops, at ANNUAL, 06/16 07:30 - 07:45
   **   ~~~   ** The solution for one or more of the Air Loop HVAC systems did not appear to converge
   **   ~~~   ** Air System Named = CENTRAL SYSTEM did not converge for mass flow rate
   **   ~~~   ** Check values should be zero. Most Recent values listed first.
   **   ~~~   ** Demand-to-Supply interface mass flow rate check value iteration history trace: 7.661849E-002,7.661849E-002,7.661849E-002,7.661849E-002,7.661849E-002,7.661849E-002,7.661849E-002,7.661849E-002,7.661849E-002,7.661849E-002,
   **   ~~~   ** Supply-to-demand interface deck 1 mass flow rate check value iteration history trace: 7.661849E-002,7.661849E-002,7.661849E-002,7.661849E-002,7.661849E-002,7.661849E-002,7.661849E-002,7.661849E-002,7.661849E-002,7.661849E-002,
   **   ~~~   ** Air System Named = CENTRAL SYSTEM did not converge for energy
   **   ~~~   ** Check values should be zero. Most Recent values listed first.
   **   ~~~   ** Demand-to-Supply interface energy check value iteration history trace: 1815.886244,1815.886245,1815.886245,1815.886245,1815.886246,1815.886246,1815.886246,1815.886246,1815.886247,1815.886247,
   **   ~~~   ** Supply-to-demand interface deck 1 energy check value iteration history trace: 971.947767,971.947767,971.947767,971.947767,971.947768,971.947768,971.947768,971.947768,971.947768,971.947768,
   ** Warning ** SimHVAC: Maximum iterations (20) exceeded for all HVAC loops, at ANNUAL, 10/20 06:45 - 07:00
   **   ~~~   ** The solution for one or more of the Air Loop HVAC systems did not appear to converge
   **   ~~~   ** Air System Named = CENTRAL SYSTEM did not converge for mass flow rate
   **   ~~~   ** Check values should be zero. Most Recent values listed first.
   **   ~~~   ** Demand-to-Supply interface mass flow rate check value iteration history trace: 5.553721E-002,5.553721E-002,5.553721E-002,5.553721E-002,5.553721E-002,5.553721E-002,5.553721E-002,5.553721E-002,5.553721E-002,5.553721E-002,
   **   ~~~   ** Supply-to-demand interface deck 1 mass flow rate check value iteration history trace: 5.553721E-002,5.553721E-002,5.553721E-002,5.553721E-002,5.553721E-002,5.553721E-002,5.553721E-002,5.553721E-002,5.553721E-002,5.553721E-002,
   **   ~~~   ** Air System Named = CENTRAL SYSTEM did not converge for energy
   **   ~~~   ** Check values should be zero. Most Recent values listed first.
   **   ~~~   ** Demand-to-Supply interface energy check value iteration history trace: 1084.184059,1084.184059,1084.184059,1084.184059,1084.184059,1084.184059,1084.184059,1084.184059,1084.184059,1084.184059,
   **   ~~~   ** Supply-to-demand interface deck 1 energy check value iteration history trace: 1969.236337,1969.236337,1969.236337,1969.236337,1969.236337,1969.236337,1969.236337,1969.236337,1969.236337,1969.236337,
   ** Warning ** SimHVAC: Maximum iterations (20) exceeded for all HVAC loops, at ANNUAL, 10/28 23:45 - 23:52
   **   ~~~   ** The solution for one or more of the Air Loop HVAC systems did not appear to converge
   **   ~~~   ** Air System Named = CENTRAL SYSTEM did not converge for mass flow rate
   **   ~~~   ** Check values should be zero. Most Recent values listed first.
   **   ~~~   ** Demand-to-Supply interface mass flow rate check value iteration history trace: 5.331552E-002,5.331552E-002,5.331552E-002,5.331552E-002,5.331552E-002,5.331552E-002,5.331552E-002,5.331552E-002,5.331552E-002,5.331552E-002,
   **   ~~~   ** Supply-to-demand interface deck 1 mass flow rate check value iteration history trace: 5.331552E-002,5.331552E-002,5.331552E-002,5.331552E-002,5.331552E-002,5.331552E-002,5.331552E-002,5.331552E-002,5.331552E-002,5.331552E-002,
   **   ~~~   ** Air System Named = CENTRAL SYSTEM did not converge for energy
   **   ~~~   ** Check values should be zero. Most Recent values listed first.
   **   ~~~   ** Demand-to-Supply interface energy check value iteration history trace: 994.264817,994.264817,994.264817,994.264817,994.264817,994.264817,994.264817,994.264817,994.264817,994.264817,
   **   ~~~   ** Supply-to-demand interface deck 1 energy check value iteration history trace: 1730.886747,1730.886747,1730.886747,1730.886747,1730.886747,1730.886747,1730.886747,1730.886747,1730.886747,1730.886747,
   ** Warning ** SimHVAC: Maximum iterations (20) exceeded for all HVAC loops, at ANNUAL, 11/13 14:45 - 14:52
   **   ~~~   ** The solution for one or more of the Air Loop HVAC systems did not appear to converge
   **   ~~~   ** Air System Named = CENTRAL SYSTEM did not converge for mass flow rate
   **   ~~~   ** Check values should be zero. Most Recent values listed first.
   **   ~~~   ** Demand-to-Supply interface mass flow rate check value iteration history trace: 5.786891E-002,5.786891E-002,5.786891E-002,5.786891E-002,5.786891E-002,5.786891E-002,5.786891E-002,5.786891E-002,5.786891E-002,5.786891E-002,
   **   ~~~   ** Supply-to-demand interface deck 1 mass flow rate check value iteration history trace: 5.786891E-002,5.786891E-002,5.786891E-002,5.786891E-002,5.786891E-002,5.786891E-002,5.786891E-002,5.786891E-002,5.786891E-002,5.786891E-002,
   **   ~~~   ** Air System Named = CENTRAL SYSTEM did not converge for energy
   **   ~~~   ** Check values should be zero. Most Recent values listed first.
   **   ~~~   ** Demand-to-Supply interface energy check value iteration history trace: 1146.720122,1146.720122,1146.720122,1146.720122,1146.720122,1146.720122,1146.720122,1146.720122,1146.720122,1146.720122,
   **   ~~~   ** Supply-to-demand interface deck 1 energy check value iteration history trace: 2022.856508,2022.856508,2022.856508,2022.856508,2022.856508,2022.856508,2022.856508,2022.856507,2022.856507,2022.856507,
   ************* Simulation Error Summary *************
   ** Warning ** The following Report Variables were requested but not generated -- check.rdd file
   **   ~~~   ** Either the IDF did not contain these elements, the variable name is misspelled,
   **   ~~~   ** or the requested variable is an advanced output which requires Output : Diagnostics, DisplayAdvancedReportVariables;
   ************* Key=*, VarName=BASEBOARD TOTAL HEATING ENERGY, Frequency=
   ************* Key=*, VarName=WATER HEATER NATURALGAS ENERGY, Frequency=
   ************* Key=*, VarName=COOLING COIL TOTAL HEATING ENERGY, Frequency=
   ************* There are 34 unused schedules in input.
   ************* There are 388 unused week schedules in input.
   ************* There are 396 unused day schedules in input.
   ************* Use Output:Diagnostics,DisplayUnusedSchedules; to see them.
   *************
   ************* ===== Recurring Error Summary =====
   ************* The following recurring error messages occurred.
   *************
   *************  ** Warning ** "TOTAL HOT WATER LOAD" - Target water temperature should be less than or equal to the hot water temperature error continues...
   *************  **   ~~~   **   This error occurred 110977 total times;
   *************  **   ~~~   **   during Warmup 0 times;
   *************  **   ~~~   **   during Sizing 0 times.
   *************  **   ~~~   **   Max=10.367937  Min=2.441645E-004
   *************
   *************  ** Warning ** SimHVAC: Exceeding Maximum iterations for all HVAC loops, during ANNUAL continues
   *************  **   ~~~   **   This error occurred 1 total times;
   *************  **   ~~~   **   during Warmup 0 times;
   *************  **   ~~~   **   during Sizing 0 times.
   *************
   *************
   ************* ===== Final Error Summary =====
   ************* The following error categories occurred.  Consider correcting or noting.
   ************* Nominally Unused Constructions
   ************* ..The nominally unused constructions warning is provided to alert you to potential conditions that can cause
   ************* ..extra time during simulation. Each construction is calculated by the algorithm indicated in the HeatBalanceAlgorithm
   ************* ..object. You may remove the constructions indicated (when you use the DisplayExtraWarnings option).
   *************
   ************* EnergyPlus Warmup Error Summary. During Warmup: 1 Warning; 0 Severe Errors.
   ************* EnergyPlus Sizing Error Summary. During Sizing: 4 Warning; 0 Severe Errors.
   ************* EnergyPlus Completed Successfully-- 111010 Warning; 0 Severe Errors; Elapsed Time=00hr 01min 27.41sec
