Program Version,EnergyPlus, Version 22.2.0-c249759bad, YMD=2023.09.01 19:49,
   ************* Beginning Zone Sizing Calculations
   ** Warning ** ProcessScheduleInput: Schedule:Constant="ALWAYS ON DISCRETE", Schedule Type Limits Name="ONOFF" not found -- will not be validated
   ** Warning ** Foundation:Kiva="KIVA FOUNDATION", no Interior Horizontal Insulation Material Name defined
   **   ~~~   ** Interior Horizontal Insulation Depth will not be used.
   ** Warning ** CheckUsedConstructions: There are 15 nominally unused constructions in input.
   **   ~~~   ** Each Unused construction is shown.
   ************* Construction=INTERIOR FLOOR
   ************* Construction=INTERIOR WINDOW
   ************* Construction=EXTERIOR DOOR
   ************* Construction=INTERIOR DOOR
   ************* Construction=GABLE CONSTRUCTION
   ************* Construction=CRAWL_FLOOR
   ************* Construction=INSULATED PIPE
   ************* Construction=PLAIN PIPE
   ************* Construction=TDD PIPE
   ************* Construction=TDD DOME
   ************* Construction=TDD DIFFUSER
   ************* Construction=CRAWL WALL
   ************* Construction=CEILING-FLOOR-LAYER
   ************* Construction=SLAB CONSTRUCTION W FULL R10 INSULATION
   ************* Construction=SLAB CONSTRUCTION W FULL R5 INSULATION
   ** Warning ** GetDXCoils: Coil:Heating:DX:SingleSpeed="DX_HEATING_COIL" curve values
   **   ~~~   ** ... Defrost Energy Input Ratio Function of Temperature Curve Name = DEFROSTEIR output is not equal to 1.0 (+ or - 10%) at rated conditions.
   **   ~~~   ** ... Curve output at rated conditions = 0.152
   ************* Beginning System Sizing Calculations
   ************* Beginning Plant Sizing Calculations
   ** Warning ** SizeDXCoil Coil:Cooling:DX:SingleSpeed DX_COOLING_COIL
   **   ~~~   ** ...Gross Rated Total Cooling Capacity [W] will be limited by the maximum rated volume flow per rated total capacity ratio.
   **   ~~~   ** ...DX coil volume flow rate ( m3/s ) = 0.417642
   **   ~~~   ** ...Requested capacity ( W ) = 6707.952
   **   ~~~   ** ...Requested flow/capacity ratio ( m3/s/W ) = 6.226E-005
   **   ~~~   ** ...Maximum flow/capacity ratio ( m3/s/W ) = 6.041E-005
   **   ~~~   ** ...Adjusted capacity ( W ) = 6913.458
   ** Warning ** Coil:WaterHeating:AirToWaterHeatPump:Wrapped "HEAT PUMP WATER HEATER EVAPORATOR": Rated air volume flow rate per watt of rated total water heating capacity is out of range
   **   ~~~   ** Min Rated Vol Flow Per Watt=[4.027E-005], Rated Vol Flow Per Watt=[1.510E-004], Max Rated Vol Flow Per Watt=[8.056E-005]. See Input-Output Reference Manual for valid range.
   ************* SizeFan: : Potential issue with equipment sizing for Fan:OnOff HEAT PUMP WATER HEATER FAN
   **   ~~~   ** User-Specified Maximum Flow Rate [m3/s] = 0.22653
   **   ~~~   ** differs from Design Size Maximum Flow Rate [m3/s] = 7.55250E-002
   **   ~~~   ** This may, or may not, indicate mismatched component sizes.
   **   ~~~   ** Verify that the value entered is intended and is consistent with other components.
   ** Warning ** Water heater = WATER HEATER TANK:  Recovery Efficiency and Energy Factor could not be calculated during the test for standard ratings
   **   ~~~   ** Setpoint was never recovered and/or heater never turned on
   ** Warning ** Check input. Pump nominal power or motor efficiency is set to 0, for pump=MAINS PRESSURE
   ** Warning ** Output:Meter: invalid Key Name="ELECTRIC_RANGE:INTERIOREQUIPMENT:ELECTRICITY" - not found.
   ** Warning ** Output:Meter: invalid Key Name="ELECTRIC_DRYER:INTERIOREQUIPMENT:ELECTRICITY" - not found.
   ** Warning ** Output:Meter: invalid Key Name="HEATRECOVERY:ELECTRICITY" - not found.
   ** Warning ** Output:Meter: invalid Key Name="HEATING:NATURALGAS" - not found.
   ** Warning ** Output:Meter: invalid Key Name="WATERSYSTEMS:NATURALGAS" - not found.
   ** Warning ** Output:Meter: invalid Key Name="PROPANE:FACILITY" - not found.
   ** Warning ** Output:Meter: invalid Key Name="HEATING:PROPANE" - not found.
   ************* Testing Individual Branch Integrity
   ************* All Branches passed integrity testing
   ************* Testing Individual Supply Air Path Integrity
   ************* All Supply Air Paths passed integrity testing
   ************* Testing Individual Return Air Path Integrity
   ************* All Return Air Paths passed integrity testing
   ************* No node connection errors were found.
   ************* Beginning Simulation
   ** Warning ** AirflowNetwork::Solver::validate_distribution: Heat pump water heater is simulated along with an AirflowNetwork but is not included in the AirflowNetwork.
   ** Warning ** CalcEquipmentFlowRates: "TOTAL HOT WATER LOAD" - Target water temperature is greater than the hot water temperature by (5.71 C)
   **   ~~~   **  Environment=EXTREME_WINTER, at Simulation time=01/29 06:00 - 06:15
   **   ~~~   ** ...target water temperature     = 53.33 C
   **   ~~~   ** ...hot water temperature        = 47.63 C
   **   ~~~   ** ...Target water temperature should be less than or equal to the hot water temperature. Verify temperature setpoints and schedules.
   ** Warning ** SimHVAC: Maximum iterations (20) exceeded for all HVAC loops, at ANNUAL, 03/01 11:30 - 11:38
   **   ~~~   ** The solution for one or more of the Air Loop HVAC systems did not appear to converge
   **   ~~~   ** Air System Named = CENTRAL SYSTEM did not converge for mass flow rate
   **   ~~~   ** Check values should be zero. Most Recent values listed first.
   **   ~~~   ** Demand-to-Supply interface mass flow rate check value iteration history trace: 6.855437E-002,6.855437E-002,6.855437E-002,6.855437E-002,6.855437E-002,6.855437E-002,6.855437E-002,6.855437E-002,6.855437E-002,6.855437E-002,
   **   ~~~   ** Supply-to-demand interface deck 1 mass flow rate check value iteration history trace: 6.855437E-002,6.855437E-002,6.855437E-002,6.855437E-002,6.855437E-002,6.855437E-002,6.855437E-002,6.855437E-002,6.855437E-002,6.855437E-002,
   **   ~~~   ** Air System Named = CENTRAL SYSTEM did not converge for energy
   **   ~~~   ** Check values should be zero. Most Recent values listed first.
   **   ~~~   ** Demand-to-Supply interface energy check value iteration history trace: 1358.339438,1358.339438,1358.339438,1358.339438,1358.339438,1358.339438,1358.339438,1358.339438,1358.339437,1358.339437,
   **   ~~~   ** Supply-to-demand interface deck 1 energy check value iteration history trace: 2085.731428,2085.731428,2085.731428,2085.731428,2085.731428,2085.731428,2085.731427,2085.731427,2085.731427,2085.731427,
   ** Warning ** SimHVAC: Maximum iterations (20) exceeded for all HVAC loops, at ANNUAL, 03/26 14:45 - 14:50
   **   ~~~   ** The solution for one or more of the Air Loop HVAC systems did not appear to converge
   **   ~~~   ** Air System Named = CENTRAL SYSTEM did not converge for mass flow rate
   **   ~~~   ** Check values should be zero. Most Recent values listed first.
   **   ~~~   ** Demand-to-Supply interface mass flow rate check value iteration history trace: 5.325219E-002,5.325219E-002,5.325219E-002,5.325219E-002,5.325219E-002,5.325219E-002,5.325219E-002,5.325219E-002,5.325219E-002,5.325219E-002,
   **   ~~~   ** Supply-to-demand interface deck 1 mass flow rate check value iteration history trace: 5.325219E-002,5.325219E-002,5.325219E-002,5.325219E-002,5.325219E-002,5.325219E-002,5.325219E-002,5.325219E-002,5.325219E-002,5.325219E-002,
   **   ~~~   ** Air System Named = CENTRAL SYSTEM did not converge for energy
   **   ~~~   ** Check values should be zero. Most Recent values listed first.
   **   ~~~   ** Demand-to-Supply interface energy check value iteration history trace: 1050.998795,1050.998795,1050.998795,1050.998795,1050.998795,1050.998795,1050.998795,1050.998795,1050.998795,1050.998795,
   **   ~~~   ** Supply-to-demand interface deck 1 energy check value iteration history trace: 1813.188440,1813.188440,1813.188440,1813.188440,1813.188440,1813.188440,1813.188439,1813.188439,1813.188439,1813.188439,
   ** Warning ** SimHVAC: Maximum iterations (20) exceeded for all HVAC loops, at ANNUAL, 03/26 20:05 - 20:10
   **   ~~~   ** The solution for one or more of the Air Loop HVAC systems did not appear to converge
   **   ~~~   ** Air System Named = CENTRAL SYSTEM did not converge for mass flow rate
   **   ~~~   ** Check values should be zero. Most Recent values listed first.
   **   ~~~   ** Demand-to-Supply interface mass flow rate check value iteration history trace: 9.251766E-002,9.251766E-002,9.251766E-002,9.251766E-002,9.251766E-002,9.251766E-002,9.251766E-002,9.251766E-002,9.251766E-002,9.251766E-002,
   **   ~~~   ** Supply-to-demand interface deck 1 mass flow rate check value iteration history trace: 9.251766E-002,9.251766E-002,9.251766E-002,9.251766E-002,9.251766E-002,9.251766E-002,9.251766E-002,9.251766E-002,9.251766E-002,9.251766E-002,
   **   ~~~   ** Air System Named = CENTRAL SYSTEM did not converge for energy
   **   ~~~   ** Check values should be zero. Most Recent values listed first.
   **   ~~~   ** Demand-to-Supply interface energy check value iteration history trace: 1830.080074,1830.080074,1830.080073,1830.080073,1830.080073,1830.080073,1830.080073,1830.080073,1830.080073,1830.080073,
   **   ~~~   ** Supply-to-demand interface deck 1 energy check value iteration history trace: 2773.227229,2773.227229,2773.227229,2773.227228,2773.227228,2773.227228,2773.227228,2773.227228,2773.227228,2773.227227,
   ** Warning ** SimHVAC: Maximum iterations (20) exceeded for all HVAC loops, at ANNUAL, 04/08 10:11 - 10:15
   **   ~~~   ** The solution for one or more of the Air Loop HVAC systems did not appear to converge
   **   ~~~   ** Air System Named = CENTRAL SYSTEM did not converge for mass flow rate
   **   ~~~   ** Check values should be zero. Most Recent values listed first.
   **   ~~~   ** Demand-to-Supply interface mass flow rate check value iteration history trace: 6.459104E-002,6.459104E-002,6.459104E-002,6.459104E-002,6.459104E-002,6.459104E-002,6.459104E-002,6.459104E-002,6.459104E-002,6.459104E-002,
   **   ~~~   ** Supply-to-demand interface deck 1 mass flow rate check value iteration history trace: 6.459104E-002,6.459104E-002,6.459104E-002,6.459104E-002,6.459104E-002,6.459104E-002,6.459104E-002,6.459104E-002,6.459104E-002,6.459104E-002,
   **   ~~~   ** Air System Named = CENTRAL SYSTEM did not converge for energy
   **   ~~~   ** Check values should be zero. Most Recent values listed first.
   **   ~~~   ** Demand-to-Supply interface energy check value iteration history trace: 1275.033066,1275.033066,1275.033066,1275.033066,1275.033066,1275.033066,1275.033065,1275.033065,1275.033065,1275.033065,
   **   ~~~   ** Supply-to-demand interface deck 1 energy check value iteration history trace: 2322.187298,2322.187298,2322.187298,2322.187297,2322.187297,2322.187297,2322.187297,2322.187297,2322.187297,2322.187297,
   ** Warning ** SimHVAC: Maximum iterations (20) exceeded for all HVAC loops, at ANNUAL, 04/23 11:30 - 11:45
   **   ~~~   ** The solution for one or more of the Air Loop HVAC systems did not appear to converge
   **   ~~~   ** Air System Named = CENTRAL SYSTEM did not converge for mass flow rate
   **   ~~~   ** Check values should be zero. Most Recent values listed first.
   **   ~~~   ** Demand-to-Supply interface mass flow rate check value iteration history trace: 6.176836E-002,6.176836E-002,6.176836E-002,6.176836E-002,6.176836E-002,6.176836E-002,6.176836E-002,6.176836E-002,6.176836E-002,6.176836E-002,
   **   ~~~   ** Supply-to-demand interface deck 1 mass flow rate check value iteration history trace: 6.176836E-002,6.176836E-002,6.176836E-002,6.176836E-002,6.176836E-002,6.176836E-002,6.176836E-002,6.176836E-002,6.176836E-002,6.176836E-002,
   **   ~~~   ** Air System Named = CENTRAL SYSTEM did not converge for energy
   **   ~~~   ** Check values should be zero. Most Recent values listed first.
   **   ~~~   ** Demand-to-Supply interface energy check value iteration history trace: 1210.679800,1210.679799,1210.679799,1210.679799,1210.679799,1210.679799,1210.679798,1210.679798,1210.679798,1210.679798,
   **   ~~~   ** Supply-to-demand interface deck 1 energy check value iteration history trace: 2203.721941,2203.721940,2203.721940,2203.721940,2203.721939,2203.721939,2203.721939,2203.721938,2203.721938,2203.721937,
   **   ~~~   ** Node named ZONE INLET NODE shows oscillating temperatures across iterations with a repeated value of 35.505216
   **   ~~~   ** Node named ZONE INLET NODE temperature [C] iteration history trace (most recent first): 35.505216,35.505216,35.505216,35.505215,35.505215,35.505215,35.505215,35.505214,35.505214,35.505214,
   ** Warning ** SimHVAC: Maximum iterations (20) exceeded for all HVAC loops, at ANNUAL, 05/01 00:10 - 00:15
   **   ~~~   ** The solution for one or more of the Air Loop HVAC systems did not appear to converge
   **   ~~~   ** Air System Named = CENTRAL SYSTEM did not converge for mass flow rate
   **   ~~~   ** Check values should be zero. Most Recent values listed first.
   **   ~~~   ** Demand-to-Supply interface mass flow rate check value iteration history trace: 8.065781E-002,8.065781E-002,8.065781E-002,8.065781E-002,8.065781E-002,8.065781E-002,8.065781E-002,8.065781E-002,8.065781E-002,8.065781E-002,
   **   ~~~   ** Supply-to-demand interface deck 1 mass flow rate check value iteration history trace: 8.065781E-002,8.065781E-002,8.065781E-002,8.065781E-002,8.065781E-002,8.065781E-002,8.065781E-002,8.065781E-002,8.065781E-002,8.065781E-002,
   **   ~~~   ** Air System Named = CENTRAL SYSTEM did not converge for energy
   **   ~~~   ** Check values should be zero. Most Recent values listed first.
   **   ~~~   ** Demand-to-Supply interface energy check value iteration history trace: 1498.495068,1498.495068,1498.495068,1498.495068,1498.495068,1498.495068,1498.495068,1498.495068,1498.495068,1498.495068,
   **   ~~~   ** Supply-to-demand interface deck 1 energy check value iteration history trace: 2330.132746,2330.132746,2330.132746,2330.132746,2330.132745,2330.132745,2330.132745,2330.132745,2330.132745,2330.132745,
   ** Warning ** SimHVAC: Maximum iterations (20) exceeded for all HVAC loops, at ANNUAL, 05/09 09:15 - 09:22
   **   ~~~   ** The solution for one or more of the Air Loop HVAC systems did not appear to converge
   **   ~~~   ** Air System Named = CENTRAL SYSTEM did not converge for mass flow rate
   **   ~~~   ** Check values should be zero. Most Recent values listed first.
   **   ~~~   ** Demand-to-Supply interface mass flow rate check value iteration history trace: 5.899326E-002,5.899326E-002,5.899326E-002,5.899326E-002,5.899326E-002,5.899326E-002,5.899326E-002,5.899326E-002,5.899326E-002,5.899326E-002,
   **   ~~~   ** Supply-to-demand interface deck 1 mass flow rate check value iteration history trace: 5.899326E-002,5.899326E-002,5.899326E-002,5.899326E-002,5.899326E-002,5.899326E-002,5.899326E-002,5.899326E-002,5.899326E-002,5.899326E-002,
   **   ~~~   ** Air System Named = CENTRAL SYSTEM did not converge for energy
   **   ~~~   ** Check values should be zero. Most Recent values listed first.
   **   ~~~   ** Demand-to-Supply interface energy check value iteration history trace: 1166.858322,1166.858322,1166.858321,1166.858321,1166.858321,1166.858321,1166.858321,1166.858321,1166.858321,1166.858321,
   **   ~~~   ** Supply-to-demand interface deck 1 energy check value iteration history trace: 2042.566759,2042.566759,2042.566759,2042.566759,2042.566759,2042.566759,2042.566759,2042.566759,2042.566759,2042.566759,
   ** Warning ** SimHVAC: Maximum iterations (20) exceeded for all HVAC loops, at ANNUAL, 05/10 07:45 - 08:00
   **   ~~~   ** The solution for one or more of the Air Loop HVAC systems did not appear to converge
   **   ~~~   ** Air System Named = CENTRAL SYSTEM did not converge for mass flow rate
   **   ~~~   ** Check values should be zero. Most Recent values listed first.
   **   ~~~   ** Demand-to-Supply interface mass flow rate check value iteration history trace: 6.511135E-002,6.511135E-002,6.511135E-002,6.511135E-002,6.511135E-002,6.511135E-002,6.511135E-002,6.511135E-002,6.511135E-002,6.511135E-002,
   **   ~~~   ** Supply-to-demand interface deck 1 mass flow rate check value iteration history trace: 6.511135E-002,6.511135E-002,6.511135E-002,6.511135E-002,6.511135E-002,6.511135E-002,6.511135E-002,6.511135E-002,6.511135E-002,6.511135E-002,
   **   ~~~   ** Air System Named = CENTRAL SYSTEM did not converge for energy
   **   ~~~   ** Check values should be zero. Most Recent values listed first.
   **   ~~~   ** Demand-to-Supply interface energy check value iteration history trace: 1290.287970,1290.287970,1290.287970,1290.287970,1290.287970,1290.287970,1290.287970,1290.287970,1290.287970,1290.287970,
   **   ~~~   ** Supply-to-demand interface deck 1 energy check value iteration history trace: 2321.429921,2321.429921,2321.429921,2321.429920,2321.429920,2321.429920,2321.429920,2321.429920,2321.429920,2321.429920,
   ** Warning ** SimHVAC: Maximum iterations (20) exceeded for all HVAC loops, at ANNUAL, 05/10 08:30 - 08:32
   **   ~~~   ** The solution for one or more of the Air Loop HVAC systems did not appear to converge
   **   ~~~   ** Air System Named = CENTRAL SYSTEM did not converge for mass flow rate
   **   ~~~   ** Check values should be zero. Most Recent values listed first.
   **   ~~~   ** Demand-to-Supply interface mass flow rate check value iteration history trace: 5.904074E-002,5.904074E-002,5.904074E-002,5.904074E-002,5.904074E-002,5.904074E-002,5.904074E-002,5.904074E-002,5.904074E-002,5.904074E-002,
   **   ~~~   ** Supply-to-demand interface deck 1 mass flow rate check value iteration history trace: 5.904074E-002,5.904074E-002,5.904074E-002,5.904074E-002,5.904074E-002,5.904074E-002,5.904074E-002,5.904074E-002,5.904074E-002,5.904074E-002,
   **   ~~~   ** Air System Named = CENTRAL SYSTEM did not converge for energy
   **   ~~~   ** Check values should be zero. Most Recent values listed first.
   **   ~~~   ** Demand-to-Supply interface energy check value iteration history trace: 1166.535232,1166.535232,1166.535232,1166.535232,1166.535232,1166.535232,1166.535232,1166.535232,1166.535232,1166.535232,
   **   ~~~   ** Supply-to-demand interface deck 1 energy check value iteration history trace: 2138.285230,2138.285230,2138.285230,2138.285230,2138.285229,2138.285229,2138.285229,2138.285229,2138.285229,2138.285229,
   ** Warning ** SimHVAC: Maximum iterations (20) exceeded for all HVAC loops, at ANNUAL, 05/26 05:15 - 05:30
   **   ~~~   ** The solution for one or more of the Air Loop HVAC systems did not appear to converge
   **   ~~~   ** Air System Named = CENTRAL SYSTEM did not converge for mass flow rate
   **   ~~~   ** Check values should be zero. Most Recent values listed first.
   **   ~~~   ** Demand-to-Supply interface mass flow rate check value iteration history trace: 1.954168E-002,1.954168E-002,1.954168E-002,1.954168E-002,1.954168E-002,1.954168E-002,1.954168E-002,1.954168E-002,1.954168E-002,1.954168E-002,
   **   ~~~   ** Supply-to-demand interface deck 1 mass flow rate check value iteration history trace: 1.954168E-002,1.954168E-002,1.954168E-002,1.954168E-002,1.954168E-002,1.954168E-002,1.954168E-002,1.954168E-002,1.954168E-002,1.954168E-002,
   **   ~~~   ** Air System Named = CENTRAL SYSTEM did not converge for energy
   **   ~~~   ** Check values should be zero. Most Recent values listed first.
   **   ~~~   ** Demand-to-Supply interface energy check value iteration history trace: 387.262415,387.262415,387.262415,387.262415,387.262415,387.262415,387.262415,387.262415,387.262415,387.262415,
   **   ~~~   ** Supply-to-demand interface deck 1 energy check value iteration history trace: 590.808122,590.808122,590.808122,590.808122,590.808122,590.808121,590.808121,590.808121,590.808121,590.808121,
   ** Warning ** SimHVAC: Maximum iterations (20) exceeded for all HVAC loops, at ANNUAL, 05/29 07:00 - 07:15
   **   ~~~   ** The solution for one or more of the Air Loop HVAC systems did not appear to converge
   **   ~~~   ** Air System Named = CENTRAL SYSTEM did not converge for mass flow rate
   **   ~~~   ** Check values should be zero. Most Recent values listed first.
   **   ~~~   ** Demand-to-Supply interface mass flow rate check value iteration history trace: 6.047872E-002,6.047872E-002,6.047872E-002,6.047872E-002,6.047872E-002,6.047872E-002,6.047872E-002,6.047872E-002,6.047872E-002,6.047872E-002,
   **   ~~~   ** Supply-to-demand interface deck 1 mass flow rate check value iteration history trace: 6.047872E-002,6.047872E-002,6.047872E-002,6.047872E-002,6.047872E-002,6.047872E-002,6.047872E-002,6.047872E-002,6.047872E-002,6.047872E-002,
   **   ~~~   ** Air System Named = CENTRAL SYSTEM did not converge for energy
   **   ~~~   ** Check values should be zero. Most Recent values listed first.
   **   ~~~   ** Demand-to-Supply interface energy check value iteration history trace: 1196.887585,1196.887585,1196.887585,1196.887585,1196.887585,1196.887585,1196.887585,1196.887585,1196.887585,1196.887585,
   **   ~~~   ** Supply-to-demand interface deck 1 energy check value iteration history trace: 2097.690145,2097.690145,2097.690145,2097.690145,2097.690145,2097.690145,2097.690145,2097.690145,2097.690145,2097.690145,
   ** Warning ** SimHVAC: Maximum iterations (20) exceeded for all HVAC loops, at ANNUAL, 06/20 07:38 - 07:45
   **   ~~~   ** The solution for one or more of the Air Loop HVAC systems did not appear to converge
   **   ~~~   ** Air System Named = CENTRAL SYSTEM did not converge for mass flow rate
   **   ~~~   ** Check values should be zero. Most Recent values listed first.
   **   ~~~   ** Demand-to-Supply interface mass flow rate check value iteration history trace: 0.151555,0.151555,0.151555,0.151555,0.151555,0.151555,0.151555,0.151555,0.151555,0.151555,
   **   ~~~   ** Supply-to-demand interface deck 1 mass flow rate check value iteration history trace: 0.151555,0.151555,0.151555,0.151555,0.151555,0.151555,0.151555,0.151555,0.151555,0.151555,
   **   ~~~   ** Air System Named = CENTRAL SYSTEM did not converge for energy
   **   ~~~   ** Check values should be zero. Most Recent values listed first.
   **   ~~~   ** Demand-to-Supply interface energy check value iteration history trace: 3616.484617,3616.484618,3616.484618,3616.484618,3616.484618,3616.484619,3616.484619,3616.484619,3616.484619,3616.484620,
   **   ~~~   ** Supply-to-demand interface deck 1 energy check value iteration history trace: 2138.655819,2138.655820,2138.655820,2138.655820,2138.655820,2138.655820,2138.655820,2138.655821,2138.655821,2138.655821,
   ** Warning ** SimHVAC: Maximum iterations (20) exceeded for all HVAC loops, at ANNUAL, 06/21 07:56 - 08:00
   **   ~~~   ** The solution for one or more of the Air Loop HVAC systems did not appear to converge
   **   ~~~   ** Air System Named = CENTRAL SYSTEM did not converge for mass flow rate
   **   ~~~   ** Check values should be zero. Most Recent values listed first.
   **   ~~~   ** Demand-to-Supply interface mass flow rate check value iteration history trace: 0.196292,0.196292,0.196292,0.196292,0.196292,0.196292,0.196292,0.196292,0.196292,0.196292,
   **   ~~~   ** Supply-to-demand interface deck 1 mass flow rate check value iteration history trace: 0.196292,0.196292,0.196292,0.196292,0.196292,0.196292,0.196292,0.196292,0.196292,0.196292,
   **   ~~~   ** Air System Named = CENTRAL SYSTEM did not converge for energy
   **   ~~~   ** Check values should be zero. Most Recent values listed first.
   **   ~~~   ** Demand-to-Supply interface energy check value iteration history trace: 4677.906856,4677.906857,4677.906858,4677.906859,4677.906860,4677.906861,4677.906863,4677.906864,4677.906865,4677.906866,
   **   ~~~   ** Supply-to-demand interface deck 1 energy check value iteration history trace: 2608.161810,2608.161810,2608.161811,2608.161812,2608.161812,2608.161813,2608.161813,2608.161814,2608.161815,2608.161815,
   ** Warning ** SimHVAC: Maximum iterations (20) exceeded for all HVAC loops, at ANNUAL, 09/14 07:30 - 07:35
   **   ~~~   ** The solution for one or more of the Air Loop HVAC systems did not appear to converge
   **   ~~~   ** Air System Named = CENTRAL SYSTEM did not converge for mass flow rate
   **   ~~~   ** Check values should be zero. Most Recent values listed first.
   **   ~~~   ** Demand-to-Supply interface mass flow rate check value iteration history trace: 6.944710E-002,6.944710E-002,6.944710E-002,6.944710E-002,6.944710E-002,6.944710E-002,6.944710E-002,6.944710E-002,6.944710E-002,6.944710E-002,
   **   ~~~   ** Supply-to-demand interface deck 1 mass flow rate check value iteration history trace: 6.944710E-002,6.944710E-002,6.944710E-002,6.944710E-002,6.944710E-002,6.944710E-002,6.944710E-002,6.944710E-002,6.944710E-002,6.944710E-002,
   **   ~~~   ** Air System Named = CENTRAL SYSTEM did not converge for energy
   **   ~~~   ** Check values should be zero. Most Recent values listed first.
   **   ~~~   ** Demand-to-Supply interface energy check value iteration history trace: 1376.088068,1376.088068,1376.088068,1376.088068,1376.088068,1376.088068,1376.088068,1376.088068,1376.088068,1376.088068,
   **   ~~~   ** Supply-to-demand interface deck 1 energy check value iteration history trace: 2356.904312,2356.904312,2356.904312,2356.904312,2356.904312,2356.904312,2356.904312,2356.904311,2356.904311,2356.904311,
   ************* Simulation Error Summary *************
   ** Warning ** The following Report Variables were requested but not generated -- check.rdd file
   **   ~~~   ** Either the IDF did not contain these elements, the variable name is misspelled,
   **   ~~~   ** or the requested variable is an advanced output which requires Output : Diagnostics, DisplayAdvancedReportVariables;
   ************* Key=*, VarName=BASEBOARD TOTAL HEATING ENERGY, Frequency=
   ************* Key=*, VarName=WATER HEATER NATURALGAS ENERGY, Frequency=
   ************* Key=*, VarName=COOLING COIL TOTAL HEATING ENERGY, Frequency=
   ************* There are 34 unused schedules in input.
   ************* There are 388 unused week schedules in input.
   ************* There are 396 unused day schedules in input.
   ************* Use Output:Diagnostics,DisplayUnusedSchedules; to see them.
   *************
   ************* ===== Recurring Error Summary =====
   ************* The following recurring error messages occurred.
   *************
   *************  ** Warning ** "TOTAL HOT WATER LOAD" - Target water temperature should be less than or equal to the hot water temperature error continues...
   *************  **   ~~~   **   This error occurred 113793 total times;
   *************  **   ~~~   **   during Warmup 0 times;
   *************  **   ~~~   **   during Sizing 0 times.
   *************  **   ~~~   **   Max=16.136841  Min=7.018645E-004
   *************
   *************  ** Warning ** SimHVAC: Exceeding Maximum iterations for all HVAC loops, during ANNUAL continues
   *************  **   ~~~   **   This error occurred 10 total times;
   *************  **   ~~~   **   during Warmup 0 times;
   *************  **   ~~~   **   during Sizing 0 times.
   *************
   *************
   ************* ===== Final Error Summary =====
   ************* The following error categories occurred.  Consider correcting or noting.
   ************* Nominally Unused Constructions
   ************* ..The nominally unused constructions warning is provided to alert you to potential conditions that can cause
   ************* ..extra time during simulation. Each construction is calculated by the algorithm indicated in the HeatBalanceAlgorithm
   ************* ..object. You may remove the constructions indicated (when you use the DisplayExtraWarnings option).
   *************
   ************* EnergyPlus Warmup Error Summary. During Warmup: 1 Warning; 0 Severe Errors.
   ************* EnergyPlus Sizing Error Summary. During Sizing: 4 Warning; 0 Severe Errors.
   ************* EnergyPlus Completed Successfully-- 113835 Warning; 0 Severe Errors; Elapsed Time=00hr 01min 32.32sec
