Program Version,EnergyPlus, Version 22.2.0-c249759bad, YMD=2023.08.31 13:04,
   ************* Beginning Zone Sizing Calculations
   ** Warning ** ProcessScheduleInput: Schedule:Constant="ALWAYS ON DISCRETE", Schedule Type Limits Name="ONOFF" not found -- will not be validated
   ** Warning ** Foundation:Kiva="KIVA FOUNDATION", no Interior Horizontal Insulation Material Name defined
   **   ~~~   ** Interior Horizontal Insulation Depth will not be used.
   ** Warning ** CheckUsedConstructions: There are 15 nominally unused constructions in input.
   **   ~~~   ** Each Unused construction is shown.
   ************* Construction=INTERIOR FLOOR
   ************* Construction=INTERIOR WINDOW
   ************* Construction=EXTERIOR DOOR
   ************* Construction=INTERIOR DOOR
   ************* Construction=GABLE CONSTRUCTION
   ************* Construction=CRAWL_FLOOR
   ************* Construction=INSULATED PIPE
   ************* Construction=PLAIN PIPE
   ************* Construction=TDD PIPE
   ************* Construction=TDD DOME
   ************* Construction=TDD DIFFUSER
   ************* Construction=CRAWL WALL
   ************* Construction=CEILING-FLOOR-LAYER
   ************* Construction=SLAB CONSTRUCTION W FULL R10 INSULATION
   ************* Construction=SLAB CONSTRUCTION W FULL R5 INSULATION
   ** Warning ** GetDXCoils: Coil:Heating:DX:SingleSpeed="DX_HEATING_COIL" curve values
   **   ~~~   ** ... Defrost Energy Input Ratio Function of Temperature Curve Name = DEFROSTEIR output is not equal to 1.0 (+ or - 10%) at rated conditions.
   **   ~~~   ** ... Curve output at rated conditions = 0.152
   ************* Beginning System Sizing Calculations
   ************* Beginning Plant Sizing Calculations
   ** Warning ** SizeDXCoil Coil:Cooling:DX:SingleSpeed DX_COOLING_COIL
   **   ~~~   ** ...Gross Rated Total Cooling Capacity [W] will be limited by the maximum rated volume flow per rated total capacity ratio.
   **   ~~~   ** ...DX coil volume flow rate ( m3/s ) = 0.346693
   **   ~~~   ** ...Requested capacity ( W ) = 5104.496
   **   ~~~   ** ...Requested flow/capacity ratio ( m3/s/W ) = 6.791E-005
   **   ~~~   ** ...Maximum flow/capacity ratio ( m3/s/W ) = 6.041E-005
   **   ~~~   ** ...Adjusted capacity ( W ) = 5739.010
   ** Warning ** Coil:WaterHeating:AirToWaterHeatPump:Wrapped "HEAT PUMP WATER HEATER EVAPORATOR": Rated air volume flow rate per watt of rated total water heating capacity is out of range
   **   ~~~   ** Min Rated Vol Flow Per Watt=[4.027E-005], Rated Vol Flow Per Watt=[1.386E-004], Max Rated Vol Flow Per Watt=[8.056E-005]. See Input-Output Reference Manual for valid range.
   ** Warning ** Water heater = WATER HEATER TANK:  Recovery Efficiency and Energy Factor could not be calculated during the test for standard ratings
   **   ~~~   ** Setpoint was never recovered and/or heater never turned on
   ** Warning ** Check input. Pump nominal power or motor efficiency is set to 0, for pump=MAINS PRESSURE
   ** Warning ** Output:Meter: invalid Key Name="ELECTRIC_RANGE:INTERIOREQUIPMENT:ELECTRICITY" - not found.
   ** Warning ** Output:Meter: invalid Key Name="ELECTRIC_DRYER:INTERIOREQUIPMENT:ELECTRICITY" - not found.
   ** Warning ** Output:Meter: invalid Key Name="HEATRECOVERY:ELECTRICITY" - not found.
   ** Warning ** Output:Meter: invalid Key Name="HEATING:NATURALGAS" - not found.
   ** Warning ** Output:Meter: invalid Key Name="WATERSYSTEMS:NATURALGAS" - not found.
   ** Warning ** Output:Meter: invalid Key Name="PROPANE:FACILITY" - not found.
   ** Warning ** Output:Meter: invalid Key Name="HEATING:PROPANE" - not found.
   ************* Testing Individual Branch Integrity
   ************* All Branches passed integrity testing
   ************* Testing Individual Supply Air Path Integrity
   ************* All Supply Air Paths passed integrity testing
   ************* Testing Individual Return Air Path Integrity
   ************* All Return Air Paths passed integrity testing
   ************* No node connection errors were found.
   ************* Beginning Simulation
   ** Warning ** AirflowNetwork::Solver::validate_distribution: Heat pump water heater is simulated along with an AirflowNetwork but is not included in the AirflowNetwork.
   ** Warning ** CalcEquipmentFlowRates: "TOTAL HOT WATER LOAD" - Target water temperature is greater than the hot water temperature by (2.97 C)
   **   ~~~   **  Environment=EXTREME_WINTER, at Simulation time=01/01 06:00 - 06:15
   **   ~~~   ** ...target water temperature     = 53.33 C
   **   ~~~   ** ...hot water temperature        = 50.36 C
   **   ~~~   ** ...Target water temperature should be less than or equal to the hot water temperature. Verify temperature setpoints and schedules.
   ** Warning ** SimHVAC: Maximum iterations (20) exceeded for all HVAC loops, at ANNUAL, 02/13 10:15 - 10:30
   **   ~~~   ** The solution for one or more of the Air Loop HVAC systems did not appear to converge
   **   ~~~   ** Air System Named = CENTRAL SYSTEM did not converge for mass flow rate
   **   ~~~   ** Check values should be zero. Most Recent values listed first.
   **   ~~~   ** Demand-to-Supply interface mass flow rate check value iteration history trace: 9.863354E-002,9.863354E-002,9.863354E-002,9.863354E-002,9.863354E-002,9.863354E-002,9.863354E-002,9.863354E-002,9.863353E-002,9.863353E-002,
   **   ~~~   ** Supply-to-demand interface deck 1 mass flow rate check value iteration history trace: 9.863354E-002,9.863354E-002,9.863354E-002,9.863354E-002,9.863354E-002,9.863354E-002,9.863354E-002,9.863354E-002,9.863353E-002,9.863353E-002,
   **   ~~~   ** Air System Named = CENTRAL SYSTEM did not converge for energy
   **   ~~~   ** Check values should be zero. Most Recent values listed first.
   **   ~~~   ** Demand-to-Supply interface energy check value iteration history trace: 1954.483128,1954.483125,1954.483123,1954.483121,1954.483119,1954.483117,1954.483115,1954.483112,1954.483110,1954.483108,
   **   ~~~   ** Supply-to-demand interface deck 1 energy check value iteration history trace: 2950.226858,2950.226855,2950.226852,2950.226848,2950.226845,2950.226842,2950.226838,2950.226835,2950.226832,2950.226829,
   ** Warning ** SimHVAC: Maximum iterations (20) exceeded for all HVAC loops, at ANNUAL, 02/18 10:15 - 10:30
   **   ~~~   ** The solution for one or more of the Air Loop HVAC systems did not appear to converge
   **   ~~~   ** Air System Named = CENTRAL SYSTEM did not converge for mass flow rate
   **   ~~~   ** Check values should be zero. Most Recent values listed first.
   **   ~~~   ** Demand-to-Supply interface mass flow rate check value iteration history trace: 0.114602,0.114602,0.114602,0.114602,0.114602,0.114602,0.114602,0.114602,0.114602,0.114602,
   **   ~~~   ** Supply-to-demand interface deck 1 mass flow rate check value iteration history trace: 0.114602,0.114602,0.114602,0.114602,0.114602,0.114602,0.114602,0.114602,0.114602,0.114602,
   **   ~~~   ** Air System Named = CENTRAL SYSTEM did not converge for energy
   **   ~~~   ** Check values should be zero. Most Recent values listed first.
   **   ~~~   ** Demand-to-Supply interface energy check value iteration history trace: 2266.071519,2266.071516,2266.071513,2266.071510,2266.071507,2266.071504,2266.071501,2266.071498,2266.071495,2266.071492,
   **   ~~~   ** Supply-to-demand interface deck 1 energy check value iteration history trace: 3357.425445,3357.425440,3357.425436,3357.425431,3357.425427,3357.425422,3357.425418,3357.425413,3357.425409,3357.425404,
   ** Warning ** SimHVAC: Maximum iterations (20) exceeded for all HVAC loops, at ANNUAL, 03/04 11:00 - 11:15
   **   ~~~   ** The solution for one or more of the Air Loop HVAC systems did not appear to converge
   **   ~~~   ** Air System Named = CENTRAL SYSTEM did not converge for mass flow rate
   **   ~~~   ** Check values should be zero. Most Recent values listed first.
   **   ~~~   ** Demand-to-Supply interface mass flow rate check value iteration history trace: 7.051133E-002,7.051133E-002,7.051133E-002,7.051133E-002,7.051133E-002,7.051133E-002,7.051133E-002,7.051133E-002,7.051133E-002,7.051133E-002,
   **   ~~~   ** Supply-to-demand interface deck 1 mass flow rate check value iteration history trace: 7.051133E-002,7.051133E-002,7.051133E-002,7.051133E-002,7.051133E-002,7.051133E-002,7.051133E-002,7.051133E-002,7.051133E-002,7.051133E-002,
   **   ~~~   ** Air System Named = CENTRAL SYSTEM did not converge for energy
   **   ~~~   ** Check values should be zero. Most Recent values listed first.
   **   ~~~   ** Demand-to-Supply interface energy check value iteration history trace: 1397.265864,1397.265862,1397.265861,1397.265859,1397.265858,1397.265856,1397.265855,1397.265853,1397.265852,1397.265850,
   **   ~~~   ** Supply-to-demand interface deck 1 energy check value iteration history trace: 2347.097079,2347.097076,2347.097074,2347.097071,2347.097069,2347.097066,2347.097064,2347.097061,2347.097059,2347.097056,
   ** Warning ** SimHVAC: Maximum iterations (20) exceeded for all HVAC loops, at ANNUAL, 03/05 19:00 - 19:15
   **   ~~~   ** The solution for one or more of the Air Loop HVAC systems did not appear to converge
   **   ~~~   ** Air System Named = CENTRAL SYSTEM did not converge for mass flow rate
   **   ~~~   ** Check values should be zero. Most Recent values listed first.
   **   ~~~   ** Demand-to-Supply interface mass flow rate check value iteration history trace: 8.599602E-002,8.599602E-002,8.599602E-002,8.599602E-002,8.599602E-002,8.599602E-002,8.599602E-002,8.599602E-002,8.599602E-002,8.599602E-002,
   **   ~~~   ** Supply-to-demand interface deck 1 mass flow rate check value iteration history trace: 8.599602E-002,8.599602E-002,8.599602E-002,8.599602E-002,8.599602E-002,8.599602E-002,8.599602E-002,8.599602E-002,8.599602E-002,8.599602E-002,
   **   ~~~   ** Air System Named = CENTRAL SYSTEM did not converge for energy
   **   ~~~   ** Check values should be zero. Most Recent values listed first.
   **   ~~~   ** Demand-to-Supply interface energy check value iteration history trace: 1702.235273,1702.235272,1702.235271,1702.235269,1702.235268,1702.235266,1702.235265,1702.235263,1702.235262,1702.235260,
   **   ~~~   ** Supply-to-demand interface deck 1 energy check value iteration history trace: 2875.393899,2875.393896,2875.393894,2875.393891,2875.393889,2875.393886,2875.393884,2875.393881,2875.393879,2875.393876,
   ** Warning ** SimHVAC: Maximum iterations (20) exceeded for all HVAC loops, at ANNUAL, 03/11 10:45 - 10:50
   **   ~~~   ** The solution for one or more of the Air Loop HVAC systems did not appear to converge
   **   ~~~   ** Air System Named = CENTRAL SYSTEM did not converge for mass flow rate
   **   ~~~   ** Check values should be zero. Most Recent values listed first.
   **   ~~~   ** Demand-to-Supply interface mass flow rate check value iteration history trace: 7.323012E-002,7.323012E-002,7.323012E-002,7.323012E-002,7.323012E-002,7.323012E-002,7.323012E-002,7.323012E-002,7.323012E-002,7.323012E-002,
   **   ~~~   ** Supply-to-demand interface deck 1 mass flow rate check value iteration history trace: 7.323012E-002,7.323012E-002,7.323012E-002,7.323012E-002,7.323012E-002,7.323012E-002,7.323012E-002,7.323012E-002,7.323012E-002,7.323012E-002,
   **   ~~~   ** Air System Named = CENTRAL SYSTEM did not converge for energy
   **   ~~~   ** Check values should be zero. Most Recent values listed first.
   **   ~~~   ** Demand-to-Supply interface energy check value iteration history trace: 1451.206667,1451.206666,1451.206665,1451.206664,1451.206663,1451.206662,1451.206661,1451.206660,1451.206659,1451.206658,
   **   ~~~   ** Supply-to-demand interface deck 1 energy check value iteration history trace: 2488.768806,2488.768805,2488.768803,2488.768802,2488.768800,2488.768798,2488.768797,2488.768795,2488.768793,2488.768792,
   ** Warning ** SimHVAC: Maximum iterations (20) exceeded for all HVAC loops, at ANNUAL, 03/13 16:40 - 16:45
   **   ~~~   ** The solution for one or more of the Air Loop HVAC systems did not appear to converge
   **   ~~~   ** Air System Named = CENTRAL SYSTEM did not converge for mass flow rate
   **   ~~~   ** Check values should be zero. Most Recent values listed first.
   **   ~~~   ** Demand-to-Supply interface mass flow rate check value iteration history trace: 6.312427E-002,6.312427E-002,6.312427E-002,6.312427E-002,6.312427E-002,6.312427E-002,6.312427E-002,6.312427E-002,6.312427E-002,6.312427E-002,
   **   ~~~   ** Supply-to-demand interface deck 1 mass flow rate check value iteration history trace: 6.312427E-002,6.312427E-002,6.312427E-002,6.312427E-002,6.312427E-002,6.312427E-002,6.312427E-002,6.312427E-002,6.312427E-002,6.312427E-002,
   **   ~~~   ** Air System Named = CENTRAL SYSTEM did not converge for energy
   **   ~~~   ** Check values should be zero. Most Recent values listed first.
   **   ~~~   ** Demand-to-Supply interface energy check value iteration history trace: 1251.144576,1251.144575,1251.144574,1251.144573,1251.144572,1251.144572,1251.144571,1251.144570,1251.144569,1251.144568,
   **   ~~~   ** Supply-to-demand interface deck 1 energy check value iteration history trace: 2208.241805,2208.241804,2208.241802,2208.241801,2208.241799,2208.241798,2208.241796,2208.241795,2208.241793,2208.241792,
   ** Warning ** SimHVAC: Maximum iterations (20) exceeded for all HVAC loops, at ANNUAL, 03/25 08:30 - 08:34
   **   ~~~   ** The solution for one or more of the Air Loop HVAC systems did not appear to converge
   **   ~~~   ** Air System Named = CENTRAL SYSTEM did not converge for mass flow rate
   **   ~~~   ** Check values should be zero. Most Recent values listed first.
   **   ~~~   ** Demand-to-Supply interface mass flow rate check value iteration history trace: 9.504942E-002,9.504942E-002,9.504942E-002,9.504942E-002,9.504942E-002,9.504942E-002,9.504942E-002,9.504942E-002,9.504942E-002,9.504942E-002,
   **   ~~~   ** Supply-to-demand interface deck 1 mass flow rate check value iteration history trace: 9.504942E-002,9.504942E-002,9.504942E-002,9.504942E-002,9.504942E-002,9.504942E-002,9.504942E-002,9.504942E-002,9.504942E-002,9.504942E-002,
   **   ~~~   ** Air System Named = CENTRAL SYSTEM did not converge for energy
   **   ~~~   ** Check values should be zero. Most Recent values listed first.
   **   ~~~   ** Demand-to-Supply interface energy check value iteration history trace: 1883.505182,1883.505181,1883.505180,1883.505179,1883.505178,1883.505176,1883.505175,1883.505174,1883.505173,1883.505172,
   **   ~~~   ** Supply-to-demand interface deck 1 energy check value iteration history trace: 3265.774165,3265.774163,3265.774161,3265.774159,3265.774157,3265.774155,3265.774153,3265.774151,3265.774149,3265.774147,
   ** Warning ** SimHVAC: Maximum iterations (20) exceeded for all HVAC loops, at ANNUAL, 04/09 09:06 - 09:09
   **   ~~~   ** The solution for one or more of the Air Loop HVAC systems did not appear to converge
   **   ~~~   ** Air System Named = CENTRAL SYSTEM did not converge for mass flow rate
   **   ~~~   ** Check values should be zero. Most Recent values listed first.
   **   ~~~   ** Demand-to-Supply interface mass flow rate check value iteration history trace: 7.923812E-002,7.923812E-002,7.923812E-002,7.923812E-002,7.923812E-002,7.923812E-002,7.923812E-002,7.923812E-002,7.923812E-002,7.923812E-002,
   **   ~~~   ** Supply-to-demand interface deck 1 mass flow rate check value iteration history trace: 7.923812E-002,7.923812E-002,7.923812E-002,7.923812E-002,7.923812E-002,7.923812E-002,7.923812E-002,7.923812E-002,7.923812E-002,7.923812E-002,
   **   ~~~   ** Air System Named = CENTRAL SYSTEM did not converge for energy
   **   ~~~   ** Check values should be zero. Most Recent values listed first.
   **   ~~~   ** Demand-to-Supply interface energy check value iteration history trace: 1559.341115,1559.341114,1559.341113,1559.341112,1559.341111,1559.341110,1559.341110,1559.341109,1559.341108,1559.341107,
   **   ~~~   ** Supply-to-demand interface deck 1 energy check value iteration history trace: 2852.128948,2852.128947,2852.128945,2852.128944,2852.128942,2852.128940,2852.128939,2852.128937,2852.128936,2852.128934,
   ** Warning ** SimHVAC: Maximum iterations (20) exceeded for all HVAC loops, at ANNUAL, 04/17 09:30 - 09:38
   **   ~~~   ** The solution for one or more of the Air Loop HVAC systems did not appear to converge
   **   ~~~   ** Air System Named = CENTRAL SYSTEM did not converge for mass flow rate
   **   ~~~   ** Check values should be zero. Most Recent values listed first.
   **   ~~~   ** Demand-to-Supply interface mass flow rate check value iteration history trace: 6.576117E-002,6.576116E-002,6.576116E-002,6.576116E-002,6.576116E-002,6.576116E-002,6.576116E-002,6.576116E-002,6.576116E-002,6.576116E-002,
   **   ~~~   ** Supply-to-demand interface deck 1 mass flow rate check value iteration history trace: 6.576117E-002,6.576116E-002,6.576116E-002,6.576116E-002,6.576116E-002,6.576116E-002,6.576116E-002,6.576116E-002,6.576116E-002,6.576116E-002,
   **   ~~~   ** Air System Named = CENTRAL SYSTEM did not converge for energy
   **   ~~~   ** Check values should be zero. Most Recent values listed first.
   **   ~~~   ** Demand-to-Supply interface energy check value iteration history trace: 1303.119460,1303.119458,1303.119457,1303.119455,1303.119453,1303.119451,1303.119449,1303.119447,1303.119445,1303.119443,
   **   ~~~   ** Supply-to-demand interface deck 1 energy check value iteration history trace: 2312.889247,2312.889243,2312.889240,2312.889237,2312.889233,2312.889230,2312.889227,2312.889223,2312.889220,2312.889217,
   ** Warning ** SimHVAC: Maximum iterations (20) exceeded for all HVAC loops, at ANNUAL, 04/22 08:32 - 08:33
   **   ~~~   ** The solution for one or more of the Air Loop HVAC systems did not appear to converge
   **   ~~~   ** Air System Named = CENTRAL SYSTEM did not converge for mass flow rate
   **   ~~~   ** Check values should be zero. Most Recent values listed first.
   **   ~~~   ** Demand-to-Supply interface mass flow rate check value iteration history trace: 8.009147E-002,8.009147E-002,8.009147E-002,8.009147E-002,8.009147E-002,8.009147E-002,8.009147E-002,8.009147E-002,8.009147E-002,8.009147E-002,
   **   ~~~   ** Supply-to-demand interface deck 1 mass flow rate check value iteration history trace: 8.009147E-002,8.009147E-002,8.009147E-002,8.009147E-002,8.009147E-002,8.009147E-002,8.009147E-002,8.009147E-002,8.009147E-002,8.009147E-002,
   **   ~~~   ** Air System Named = CENTRAL SYSTEM did not converge for energy
   **   ~~~   ** Check values should be zero. Most Recent values listed first.
   **   ~~~   ** Demand-to-Supply interface energy check value iteration history trace: 1582.774735,1582.774734,1582.774733,1582.774732,1582.774732,1582.774731,1582.774730,1582.774729,1582.774729,1582.774728,
   **   ~~~   ** Supply-to-demand interface deck 1 energy check value iteration history trace: 2795.658284,2795.658282,2795.658281,2795.658280,2795.658278,2795.658277,2795.658275,2795.658274,2795.658273,2795.658271,
   ** Warning ** SimHVAC: Maximum iterations (20) exceeded for all HVAC loops, at ANNUAL, 04/28 08:15 - 08:20
   **   ~~~   ** The solution for one or more of the Air Loop HVAC systems did not appear to converge
   **   ~~~   ** Air System Named = CENTRAL SYSTEM did not converge for mass flow rate
   **   ~~~   ** Check values should be zero. Most Recent values listed first.
   **   ~~~   ** Demand-to-Supply interface mass flow rate check value iteration history trace: 8.721112E-002,8.721112E-002,8.721112E-002,8.721112E-002,8.721112E-002,8.721112E-002,8.721112E-002,8.721112E-002,8.721112E-002,8.721112E-002,
   **   ~~~   ** Supply-to-demand interface deck 1 mass flow rate check value iteration history trace: 8.721112E-002,8.721112E-002,8.721112E-002,8.721112E-002,8.721112E-002,8.721112E-002,8.721112E-002,8.721112E-002,8.721112E-002,8.721112E-002,
   **   ~~~   ** Air System Named = CENTRAL SYSTEM did not converge for energy
   **   ~~~   ** Check values should be zero. Most Recent values listed first.
   **   ~~~   ** Demand-to-Supply interface energy check value iteration history trace: 1728.104261,1728.104258,1728.104255,1728.104253,1728.104250,1728.104247,1728.104245,1728.104242,1728.104239,1728.104236,
   **   ~~~   ** Supply-to-demand interface deck 1 energy check value iteration history trace: 2990.611315,2990.611310,2990.611305,2990.611301,2990.611296,2990.611291,2990.611287,2990.611282,2990.611278,2990.611273,
   ** Warning ** SimHVAC: Maximum iterations (20) exceeded for all HVAC loops, at ANNUAL, 05/06 08:15 - 08:30
   **   ~~~   ** The solution for one or more of the Air Loop HVAC systems did not appear to converge
   **   ~~~   ** Air System Named = CENTRAL SYSTEM did not converge for mass flow rate
   **   ~~~   ** Check values should be zero. Most Recent values listed first.
   **   ~~~   ** Demand-to-Supply interface mass flow rate check value iteration history trace: 7.914514E-002,7.914514E-002,7.914514E-002,7.914514E-002,7.914513E-002,7.914513E-002,7.914513E-002,7.914513E-002,7.914513E-002,7.914513E-002,
   **   ~~~   ** Supply-to-demand interface deck 1 mass flow rate check value iteration history trace: 7.914514E-002,7.914514E-002,7.914514E-002,7.914514E-002,7.914513E-002,7.914513E-002,7.914513E-002,7.914513E-002,7.914513E-002,7.914513E-002,
   **   ~~~   ** Air System Named = CENTRAL SYSTEM did not converge for energy
   **   ~~~   ** Check values should be zero. Most Recent values listed first.
   **   ~~~   ** Demand-to-Supply interface energy check value iteration history trace: 1568.773277,1568.773276,1568.773274,1568.773273,1568.773271,1568.773270,1568.773269,1568.773267,1568.773266,1568.773264,
   **   ~~~   ** Supply-to-demand interface deck 1 energy check value iteration history trace: 2727.223146,2727.223143,2727.223141,2727.223138,2727.223136,2727.223133,2727.223131,2727.223128,2727.223125,2727.223123,
   ** Warning ** SimHVAC: Maximum iterations (20) exceeded for all HVAC loops, at ANNUAL, 05/08 08:18 - 08:21
   **   ~~~   ** The solution for one or more of the Air Loop HVAC systems did not appear to converge
   **   ~~~   ** Air System Named = CENTRAL SYSTEM did not converge for mass flow rate
   **   ~~~   ** Check values should be zero. Most Recent values listed first.
   **   ~~~   ** Demand-to-Supply interface mass flow rate check value iteration history trace: 8.635684E-002,8.635684E-002,8.635684E-002,8.635684E-002,8.635684E-002,8.635684E-002,8.635684E-002,8.635684E-002,8.635684E-002,8.635684E-002,
   **   ~~~   ** Supply-to-demand interface deck 1 mass flow rate check value iteration history trace: 8.635684E-002,8.635684E-002,8.635684E-002,8.635684E-002,8.635684E-002,8.635684E-002,8.635684E-002,8.635684E-002,8.635684E-002,8.635684E-002,
   **   ~~~   ** Air System Named = CENTRAL SYSTEM did not converge for energy
   **   ~~~   ** Check values should be zero. Most Recent values listed first.
   **   ~~~   ** Demand-to-Supply interface energy check value iteration history trace: 1711.287155,1711.287153,1711.287151,1711.287149,1711.287148,1711.287146,1711.287144,1711.287142,1711.287141,1711.287139,
   **   ~~~   ** Supply-to-demand interface deck 1 energy check value iteration history trace: 2928.245556,2928.245553,2928.245550,2928.245547,2928.245544,2928.245541,2928.245538,2928.245535,2928.245532,2928.245529,
   ** Warning ** SimHVAC: Maximum iterations (20) exceeded for all HVAC loops, at ANNUAL, 05/12 10:23 - 10:25
   **   ~~~   ** The solution for one or more of the Air Loop HVAC systems did not appear to converge
   **   ~~~   ** Air System Named = CENTRAL SYSTEM did not converge for mass flow rate
   **   ~~~   ** Check values should be zero. Most Recent values listed first.
   **   ~~~   ** Demand-to-Supply interface mass flow rate check value iteration history trace: 6.489149E-002,6.489149E-002,6.489149E-002,6.489149E-002,6.489149E-002,6.489149E-002,6.489149E-002,6.489149E-002,6.489149E-002,6.489149E-002,
   **   ~~~   ** Supply-to-demand interface deck 1 mass flow rate check value iteration history trace: 6.489149E-002,6.489149E-002,6.489149E-002,6.489149E-002,6.489149E-002,6.489149E-002,6.489149E-002,6.489149E-002,6.489149E-002,6.489149E-002,
   **   ~~~   ** Air System Named = CENTRAL SYSTEM did not converge for energy
   **   ~~~   ** Check values should be zero. Most Recent values listed first.
   **   ~~~   ** Demand-to-Supply interface energy check value iteration history trace: 1279.547900,1279.547899,1279.547898,1279.547897,1279.547896,1279.547895,1279.547894,1279.547893,1279.547892,1279.547891,
   **   ~~~   ** Supply-to-demand interface deck 1 energy check value iteration history trace: 2238.384576,2238.384574,2238.384572,2238.384571,2238.384569,2238.384567,2238.384565,2238.384563,2238.384561,2238.384559,
   ************* Simulation Error Summary *************
   ** Warning ** The following Report Variables were requested but not generated -- check.rdd file
   **   ~~~   ** Either the IDF did not contain these elements, the variable name is misspelled,
   **   ~~~   ** or the requested variable is an advanced output which requires Output : Diagnostics, DisplayAdvancedReportVariables;
   ************* Key=*, VarName=BASEBOARD TOTAL HEATING ENERGY, Frequency=
   ************* Key=*, VarName=WATER HEATER NATURALGAS ENERGY, Frequency=
   ************* Key=*, VarName=COOLING COIL TOTAL HEATING ENERGY, Frequency=
   ************* There are 34 unused schedules in input.
   ************* There are 388 unused week schedules in input.
   ************* There are 396 unused day schedules in input.
   ************* Use Output:Diagnostics,DisplayUnusedSchedules; to see them.
   *************
   ************* ===== Recurring Error Summary =====
   ************* The following recurring error messages occurred.
   *************
   *************  ** Warning ** "TOTAL HOT WATER LOAD" - Target water temperature should be less than or equal to the hot water temperature error continues...
   *************  **   ~~~   **   This error occurred 106343 total times;
   *************  **   ~~~   **   during Warmup 0 times;
   *************  **   ~~~   **   during Sizing 0 times.
   *************  **   ~~~   **   Max=19.500507  Min=1.629819E-004
   *************
   *************  ** Warning ** SimHVAC: Exceeding Maximum iterations for all HVAC loops, during ANNUAL continues
   *************  **   ~~~   **   This error occurred 12 total times;
   *************  **   ~~~   **   during Warmup 0 times;
   *************  **   ~~~   **   during Sizing 0 times.
   *************
   *************
   ************* ===== Final Error Summary =====
   ************* The following error categories occurred.  Consider correcting or noting.
   ************* Nominally Unused Constructions
   ************* ..The nominally unused constructions warning is provided to alert you to potential conditions that can cause
   ************* ..extra time during simulation. Each construction is calculated by the algorithm indicated in the HeatBalanceAlgorithm
   ************* ..object. You may remove the constructions indicated (when you use the DisplayExtraWarnings option).
   *************
   ************* EnergyPlus Warmup Error Summary. During Warmup: 1 Warning; 0 Severe Errors.
   ************* EnergyPlus Sizing Error Summary. During Sizing: 4 Warning; 0 Severe Errors.
   ************* EnergyPlus Completed Successfully-- 106387 Warning; 0 Severe Errors; Elapsed Time=00hr 04min 49.94sec
