Program Version,EnergyPlus, Version 22.2.0-c249759bad, YMD=2023.09.01 19:56,
   ************* Beginning Zone Sizing Calculations
   ** Warning ** ProcessScheduleInput: Schedule:Constant="ALWAYS ON DISCRETE", Schedule Type Limits Name="ONOFF" not found -- will not be validated
   ** Warning ** Foundation:Kiva="KIVA FOUNDATION", no Interior Horizontal Insulation Material Name defined
   **   ~~~   ** Interior Horizontal Insulation Depth will not be used.
   ** Warning ** CheckUsedConstructions: There are 15 nominally unused constructions in input.
   **   ~~~   ** Each Unused construction is shown.
   ************* Construction=INTERIOR FLOOR
   ************* Construction=INTERIOR WINDOW
   ************* Construction=EXTERIOR DOOR
   ************* Construction=INTERIOR DOOR
   ************* Construction=GABLE CONSTRUCTION
   ************* Construction=CRAWL_FLOOR
   ************* Construction=INSULATED PIPE
   ************* Construction=PLAIN PIPE
   ************* Construction=TDD PIPE
   ************* Construction=TDD DOME
   ************* Construction=TDD DIFFUSER
   ************* Construction=CRAWL WALL
   ************* Construction=CEILING-FLOOR-LAYER
   ************* Construction=SLAB CONSTRUCTION W FULL R10 INSULATION
   ************* Construction=SLAB CONSTRUCTION W FULL R5 INSULATION
   ** Warning ** GetDXCoils: Coil:Heating:DX:SingleSpeed="DX_HEATING_COIL" curve values
   **   ~~~   ** ... Defrost Energy Input Ratio Function of Temperature Curve Name = DEFROSTEIR output is not equal to 1.0 (+ or - 10%) at rated conditions.
   **   ~~~   ** ... Curve output at rated conditions = 0.152
   ************* Beginning System Sizing Calculations
   ************* Beginning Plant Sizing Calculations
   ** Warning ** Coil:WaterHeating:AirToWaterHeatPump:Wrapped "HEAT PUMP WATER HEATER EVAPORATOR": Rated air volume flow rate per watt of rated total water heating capacity is out of range
   **   ~~~   ** Min Rated Vol Flow Per Watt=[4.027E-005], Rated Vol Flow Per Watt=[1.510E-004], Max Rated Vol Flow Per Watt=[8.056E-005]. See Input-Output Reference Manual for valid range.
   ************* SizeFan: : Potential issue with equipment sizing for Fan:OnOff HEAT PUMP WATER HEATER FAN
   **   ~~~   ** User-Specified Maximum Flow Rate [m3/s] = 0.22653
   **   ~~~   ** differs from Design Size Maximum Flow Rate [m3/s] = 7.55250E-002
   **   ~~~   ** This may, or may not, indicate mismatched component sizes.
   **   ~~~   ** Verify that the value entered is intended and is consistent with other components.
   ** Warning ** Water heater = WATER HEATER TANK:  Recovery Efficiency and Energy Factor could not be calculated during the test for standard ratings
   **   ~~~   ** Setpoint was never recovered and/or heater never turned on
   ** Warning ** Check input. Pump nominal power or motor efficiency is set to 0, for pump=MAINS PRESSURE
   ** Warning ** Output:Meter: invalid Key Name="ELECTRIC_RANGE:INTERIOREQUIPMENT:ELECTRICITY" - not found.
   ** Warning ** Output:Meter: invalid Key Name="ELECTRIC_DRYER:INTERIOREQUIPMENT:ELECTRICITY" - not found.
   ** Warning ** Output:Meter: invalid Key Name="HEATRECOVERY:ELECTRICITY" - not found.
   ** Warning ** Output:Meter: invalid Key Name="HEATING:NATURALGAS" - not found.
   ** Warning ** Output:Meter: invalid Key Name="WATERSYSTEMS:NATURALGAS" - not found.
   ** Warning ** Output:Meter: invalid Key Name="PROPANE:FACILITY" - not found.
   ** Warning ** Output:Meter: invalid Key Name="HEATING:PROPANE" - not found.
   ************* Testing Individual Branch Integrity
   ************* All Branches passed integrity testing
   ************* Testing Individual Supply Air Path Integrity
   ************* All Supply Air Paths passed integrity testing
   ************* Testing Individual Return Air Path Integrity
   ************* All Return Air Paths passed integrity testing
   ************* No node connection errors were found.
   ************* Beginning Simulation
   ** Warning ** AirflowNetwork::Solver::validate_distribution: Heat pump water heater is simulated along with an AirflowNetwork but is not included in the AirflowNetwork.
   ** Warning ** CalcEquipmentFlowRates: "TOTAL HOT WATER LOAD" - Target water temperature is greater than the hot water temperature by (4.72 C)
   **   ~~~   **  Environment=EXTREME_WINTER, at Simulation time=01/13 07:00 - 07:15
   **   ~~~   ** ...target water temperature     = 53.33 C
   **   ~~~   ** ...hot water temperature        = 48.62 C
   **   ~~~   ** ...Target water temperature should be less than or equal to the hot water temperature. Verify temperature setpoints and schedules.
   ** Warning ** SimHVAC: Maximum iterations (20) exceeded for all HVAC loops, at EXTREME_WINTER, 01/16 22:53 - 23:00
   **   ~~~   ** The solution for one or more of the Air Loop HVAC systems did not appear to converge
   **   ~~~   ** Air System Named = CENTRAL SYSTEM did not converge for mass flow rate
   **   ~~~   ** Check values should be zero. Most Recent values listed first.
   **   ~~~   ** Demand-to-Supply interface mass flow rate check value iteration history trace: 8.017088E-002,8.017088E-002,8.017088E-002,8.017088E-002,8.017088E-002,8.017088E-002,8.017088E-002,8.017088E-002,8.017088E-002,8.017088E-002,
   **   ~~~   ** Supply-to-demand interface deck 1 mass flow rate check value iteration history trace: 8.017088E-002,8.017088E-002,8.017088E-002,8.017088E-002,8.017088E-002,8.017088E-002,8.017088E-002,8.017088E-002,8.017088E-002,8.017088E-002,
   **   ~~~   ** Air System Named = CENTRAL SYSTEM did not converge for energy
   **   ~~~   ** Check values should be zero. Most Recent values listed first.
   **   ~~~   ** Demand-to-Supply interface energy check value iteration history trace: 1494.240168,1494.240168,1494.240168,1494.240168,1494.240168,1494.240168,1494.240168,1494.240168,1494.240168,1494.240168,
   **   ~~~   ** Supply-to-demand interface deck 1 energy check value iteration history trace: 2290.206757,2290.206756,2290.206756,2290.206756,2290.206756,2290.206756,2290.206756,2290.206755,2290.206755,2290.206755,
   ** Warning ** SimHVAC: Maximum iterations (20) exceeded for all HVAC loops, at ANNUAL, 01/11 12:15 - 12:30
   **   ~~~   ** The solution for one or more of the Air Loop HVAC systems did not appear to converge
   **   ~~~   ** Air System Named = CENTRAL SYSTEM did not converge for mass flow rate
   **   ~~~   ** Check values should be zero. Most Recent values listed first.
   **   ~~~   ** Demand-to-Supply interface mass flow rate check value iteration history trace: 2.992996E-002,2.992996E-002,2.992996E-002,2.992996E-002,2.992996E-002,2.992996E-002,2.992996E-002,2.992996E-002,2.992996E-002,2.992996E-002,
   **   ~~~   ** Supply-to-demand interface deck 1 mass flow rate check value iteration history trace: 2.992996E-002,2.992996E-002,2.992996E-002,2.992996E-002,2.992996E-002,2.992996E-002,2.992996E-002,2.992996E-002,2.992996E-002,2.992996E-002,
   **   ~~~   ** Air System Named = CENTRAL SYSTEM did not converge for energy
   **   ~~~   ** Check values should be zero. Most Recent values listed first.
   **   ~~~   ** Demand-to-Supply interface energy check value iteration history trace: 594.371999,594.371999,594.371999,594.371999,594.371999,594.371999,594.371999,594.371999,594.371998,594.371998,
   **   ~~~   ** Supply-to-demand interface deck 1 energy check value iteration history trace: 1011.307403,1011.307403,1011.307403,1011.307403,1011.307403,1011.307403,1011.307403,1011.307403,1011.307403,1011.307403,
   ** Warning ** SimHVAC: Maximum iterations (20) exceeded for all HVAC loops, at ANNUAL, 01/17 09:15 - 09:30
   **   ~~~   ** The solution for one or more of the Air Loop HVAC systems did not appear to converge
   **   ~~~   ** Air System Named = CENTRAL SYSTEM did not converge for mass flow rate
   **   ~~~   ** Check values should be zero. Most Recent values listed first.
   **   ~~~   ** Demand-to-Supply interface mass flow rate check value iteration history trace: 9.479132E-002,9.479132E-002,9.479132E-002,9.479132E-002,9.479132E-002,9.479132E-002,9.479132E-002,9.479132E-002,9.479132E-002,9.479132E-002,
   **   ~~~   ** Supply-to-demand interface deck 1 mass flow rate check value iteration history trace: 9.479132E-002,9.479132E-002,9.479132E-002,9.479132E-002,9.479132E-002,9.479132E-002,9.479132E-002,9.479132E-002,9.479132E-002,9.479132E-002,
   **   ~~~   ** Air System Named = CENTRAL SYSTEM did not converge for energy
   **   ~~~   ** Check values should be zero. Most Recent values listed first.
   **   ~~~   ** Demand-to-Supply interface energy check value iteration history trace: 1878.395335,1878.395335,1878.395335,1878.395335,1878.395335,1878.395334,1878.395334,1878.395334,1878.395334,1878.395334,
   **   ~~~   ** Supply-to-demand interface deck 1 energy check value iteration history trace: 2958.204189,2958.204189,2958.204188,2958.204188,2958.204188,2958.204188,2958.204188,2958.204188,2958.204187,2958.204187,
   ** Warning ** SimHVAC: Maximum iterations (20) exceeded for all HVAC loops, at ANNUAL, 01/21 09:45 - 10:00
   **   ~~~   ** The solution for one or more of the Air Loop HVAC systems did not appear to converge
   **   ~~~   ** Air System Named = CENTRAL SYSTEM did not converge for mass flow rate
   **   ~~~   ** Check values should be zero. Most Recent values listed first.
   **   ~~~   ** Demand-to-Supply interface mass flow rate check value iteration history trace: 9.718518E-002,9.718518E-002,9.718518E-002,9.718518E-002,9.718518E-002,9.718518E-002,9.718518E-002,9.718518E-002,9.718518E-002,9.718518E-002,
   **   ~~~   ** Supply-to-demand interface deck 1 mass flow rate check value iteration history trace: 9.718518E-002,9.718518E-002,9.718518E-002,9.718518E-002,9.718518E-002,9.718518E-002,9.718518E-002,9.718518E-002,9.718518E-002,9.718518E-002,
   **   ~~~   ** Air System Named = CENTRAL SYSTEM did not converge for energy
   **   ~~~   ** Check values should be zero. Most Recent values listed first.
   **   ~~~   ** Demand-to-Supply interface energy check value iteration history trace: 1924.842499,1924.842499,1924.842499,1924.842498,1924.842498,1924.842498,1924.842498,1924.842498,1924.842498,1924.842498,
   **   ~~~   ** Supply-to-demand interface deck 1 energy check value iteration history trace: 2940.843337,2940.843337,2940.843337,2940.843337,2940.843337,2940.843336,2940.843336,2940.843336,2940.843336,2940.843336,
   ** Warning ** SimHVAC: Maximum iterations (20) exceeded for all HVAC loops, at ANNUAL, 01/26 08:38 - 08:45
   **   ~~~   ** The solution for one or more of the Air Loop HVAC systems did not appear to converge
   **   ~~~   ** Air System Named = CENTRAL SYSTEM did not converge for mass flow rate
   **   ~~~   ** Check values should be zero. Most Recent values listed first.
   **   ~~~   ** Demand-to-Supply interface mass flow rate check value iteration history trace: 6.023066E-002,6.023066E-002,6.023066E-002,6.023066E-002,6.023066E-002,6.023066E-002,6.023066E-002,6.023066E-002,6.023066E-002,6.023066E-002,
   **   ~~~   ** Supply-to-demand interface deck 1 mass flow rate check value iteration history trace: 6.023066E-002,6.023066E-002,6.023066E-002,6.023066E-002,6.023066E-002,6.023066E-002,6.023066E-002,6.023066E-002,6.023066E-002,6.023066E-002,
   **   ~~~   ** Air System Named = CENTRAL SYSTEM did not converge for energy
   **   ~~~   ** Check values should be zero. Most Recent values listed first.
   **   ~~~   ** Demand-to-Supply interface energy check value iteration history trace: 1199.556864,1199.556864,1199.556864,1199.556864,1199.556864,1199.556864,1199.556864,1199.556864,1199.556864,1199.556864,
   **   ~~~   ** Supply-to-demand interface deck 1 energy check value iteration history trace: 2084.513846,2084.513846,2084.513846,2084.513846,2084.513846,2084.513846,2084.513846,2084.513845,2084.513845,2084.513845,
   ** Warning ** SimHVAC: Maximum iterations (20) exceeded for all HVAC loops, at ANNUAL, 02/21 08:49 - 08:51
   **   ~~~   ** The solution for one or more of the Air Loop HVAC systems did not appear to converge
   **   ~~~   ** Air System Named = CENTRAL SYSTEM did not converge for mass flow rate
   **   ~~~   ** Check values should be zero. Most Recent values listed first.
   **   ~~~   ** Demand-to-Supply interface mass flow rate check value iteration history trace: 7.051337E-002,7.051337E-002,7.051337E-002,7.051337E-002,7.051337E-002,7.051337E-002,7.051337E-002,7.051337E-002,7.051337E-002,7.051337E-002,
   **   ~~~   ** Supply-to-demand interface deck 1 mass flow rate check value iteration history trace: 7.051337E-002,7.051337E-002,7.051337E-002,7.051337E-002,7.051337E-002,7.051337E-002,7.051337E-002,7.051337E-002,7.051337E-002,7.051337E-002,
   **   ~~~   ** Air System Named = CENTRAL SYSTEM did not converge for energy
   **   ~~~   ** Check values should be zero. Most Recent values listed first.
   **   ~~~   ** Demand-to-Supply interface energy check value iteration history trace: 1391.906117,1391.906117,1391.906117,1391.906117,1391.906117,1391.906117,1391.906117,1391.906116,1391.906116,1391.906116,
   **   ~~~   ** Supply-to-demand interface deck 1 energy check value iteration history trace: 2463.009537,2463.009537,2463.009536,2463.009536,2463.009536,2463.009536,2463.009536,2463.009536,2463.009536,2463.009536,
   ** Warning ** SimHVAC: Maximum iterations (20) exceeded for all HVAC loops, at ANNUAL, 02/23 09:11 - 09:15
   **   ~~~   ** The solution for one or more of the Air Loop HVAC systems did not appear to converge
   **   ~~~   ** Air System Named = CENTRAL SYSTEM did not converge for mass flow rate
   **   ~~~   ** Check values should be zero. Most Recent values listed first.
   **   ~~~   ** Demand-to-Supply interface mass flow rate check value iteration history trace: 8.193329E-002,8.193329E-002,8.193329E-002,8.193329E-002,8.193329E-002,8.193329E-002,8.193329E-002,8.193329E-002,8.193329E-002,8.193329E-002,
   **   ~~~   ** Supply-to-demand interface deck 1 mass flow rate check value iteration history trace: 8.193329E-002,8.193329E-002,8.193329E-002,8.193329E-002,8.193329E-002,8.193329E-002,8.193329E-002,8.193329E-002,8.193329E-002,8.193329E-002,
   **   ~~~   ** Air System Named = CENTRAL SYSTEM did not converge for energy
   **   ~~~   ** Check values should be zero. Most Recent values listed first.
   **   ~~~   ** Demand-to-Supply interface energy check value iteration history trace: 1620.390539,1620.390539,1620.390539,1620.390539,1620.390539,1620.390539,1620.390539,1620.390539,1620.390539,1620.390539,
   **   ~~~   ** Supply-to-demand interface deck 1 energy check value iteration history trace: 2742.406693,2742.406693,2742.406693,2742.406692,2742.406692,2742.406692,2742.406692,2742.406692,2742.406692,2742.406692,
   ** Warning ** SimHVAC: Maximum iterations (20) exceeded for all HVAC loops, at ANNUAL, 03/07 08:15 - 08:30
   **   ~~~   ** The solution for one or more of the Air Loop HVAC systems did not appear to converge
   **   ~~~   ** Air System Named = CENTRAL SYSTEM did not converge for mass flow rate
   **   ~~~   ** Check values should be zero. Most Recent values listed first.
   **   ~~~   ** Demand-to-Supply interface mass flow rate check value iteration history trace: 9.469524E-002,9.469524E-002,9.469524E-002,9.469524E-002,9.469524E-002,9.469524E-002,9.469524E-002,9.469524E-002,9.469524E-002,9.469524E-002,
   **   ~~~   ** Supply-to-demand interface deck 1 mass flow rate check value iteration history trace: 9.469524E-002,9.469524E-002,9.469524E-002,9.469524E-002,9.469524E-002,9.469524E-002,9.469524E-002,9.469524E-002,9.469524E-002,9.469524E-002,
   **   ~~~   ** Air System Named = CENTRAL SYSTEM did not converge for energy
   **   ~~~   ** Check values should be zero. Most Recent values listed first.
   **   ~~~   ** Demand-to-Supply interface energy check value iteration history trace: 1876.847518,1876.847518,1876.847517,1876.847517,1876.847517,1876.847517,1876.847517,1876.847517,1876.847517,1876.847517,
   **   ~~~   ** Supply-to-demand interface deck 1 energy check value iteration history trace: 2829.463882,2829.463882,2829.463882,2829.463882,2829.463882,2829.463881,2829.463881,2829.463881,2829.463881,2829.463881,
   ** Warning ** SimHVAC: Maximum iterations (20) exceeded for all HVAC loops, at ANNUAL, 03/19 22:30 - 22:45
   **   ~~~   ** The solution for one or more of the Air Loop HVAC systems did not appear to converge
   **   ~~~   ** Air System Named = CENTRAL SYSTEM did not converge for mass flow rate
   **   ~~~   ** Check values should be zero. Most Recent values listed first.
   **   ~~~   ** Demand-to-Supply interface mass flow rate check value iteration history trace: 1.607277E-002,1.607277E-002,1.607277E-002,1.607277E-002,1.607277E-002,1.607277E-002,1.607277E-002,1.607277E-002,1.607277E-002,1.607277E-002,
   **   ~~~   ** Supply-to-demand interface deck 1 mass flow rate check value iteration history trace: 1.607277E-002,1.607277E-002,1.607277E-002,1.607277E-002,1.607277E-002,1.607277E-002,1.607277E-002,1.607277E-002,1.607277E-002,1.607277E-002,
   **   ~~~   ** Air System Named = CENTRAL SYSTEM did not converge for energy
   **   ~~~   ** Check values should be zero. Most Recent values listed first.
   **   ~~~   ** Demand-to-Supply interface energy check value iteration history trace: 394.111304,394.111304,394.111304,394.111304,394.111304,394.111304,394.111305,394.111305,394.111305,394.111305,
   **   ~~~   ** Supply-to-demand interface deck 1 energy check value iteration history trace: 191.277181,191.277181,191.277181,191.277181,191.277181,191.277181,191.277181,191.277181,191.277181,191.277181,
   ** Warning ** SimHVAC: Maximum iterations (20) exceeded for all HVAC loops, at ANNUAL, 04/08 11:35 - 11:40
   **   ~~~   ** The solution for one or more of the Air Loop HVAC systems did not appear to converge
   **   ~~~   ** Air System Named = CENTRAL SYSTEM did not converge for mass flow rate
   **   ~~~   ** Check values should be zero. Most Recent values listed first.
   **   ~~~   ** Demand-to-Supply interface mass flow rate check value iteration history trace: 0.157326,0.157326,0.157326,0.157326,0.157326,0.157326,0.157326,0.157326,0.157326,0.157326,
   **   ~~~   ** Supply-to-demand interface deck 1 mass flow rate check value iteration history trace: 0.157326,0.157326,0.157326,0.157326,0.157326,0.157326,0.157326,0.157326,0.157326,0.157326,
   **   ~~~   ** Air System Named = CENTRAL SYSTEM did not converge for energy
   **   ~~~   ** Check values should be zero. Most Recent values listed first.
   **   ~~~   ** Demand-to-Supply interface energy check value iteration history trace: 3702.484671,3702.484671,3702.484672,3702.484672,3702.484672,3702.484672,3702.484673,3702.484673,3702.484673,3702.484673,
   **   ~~~   ** Supply-to-demand interface deck 1 energy check value iteration history trace: 1622.335350,1622.335350,1622.335350,1622.335350,1622.335351,1622.335351,1622.335351,1622.335351,1622.335351,1622.335351,
   ** Warning ** SimHVAC: Maximum iterations (20) exceeded for all HVAC loops, at ANNUAL, 11/08 05:15 - 05:30
   **   ~~~   ** The solution for one or more of the Air Loop HVAC systems did not appear to converge
   **   ~~~   ** Air System Named = CENTRAL SYSTEM did not converge for mass flow rate
   **   ~~~   ** Check values should be zero. Most Recent values listed first.
   **   ~~~   ** Demand-to-Supply interface mass flow rate check value iteration history trace: 8.683409E-002,8.683409E-002,8.683409E-002,8.683409E-002,8.683409E-002,8.683409E-002,8.683409E-002,8.683409E-002,8.683409E-002,8.683409E-002,
   **   ~~~   ** Supply-to-demand interface deck 1 mass flow rate check value iteration history trace: 8.683409E-002,8.683409E-002,8.683409E-002,8.683409E-002,8.683409E-002,8.683409E-002,8.683409E-002,8.683409E-002,8.683409E-002,8.683409E-002,
   **   ~~~   ** Air System Named = CENTRAL SYSTEM did not converge for energy
   **   ~~~   ** Check values should be zero. Most Recent values listed first.
   **   ~~~   ** Demand-to-Supply interface energy check value iteration history trace: 1723.931618,1723.931618,1723.931618,1723.931618,1723.931617,1723.931617,1723.931617,1723.931617,1723.931617,1723.931617,
   **   ~~~   ** Supply-to-demand interface deck 1 energy check value iteration history trace: 2548.876210,2548.876210,2548.876210,2548.876209,2548.876209,2548.876209,2548.876209,2548.876209,2548.876208,2548.876208,
   ** Warning ** SimHVAC: Maximum iterations (20) exceeded for all HVAC loops, at ANNUAL, 11/30 00:15 - 00:22
   **   ~~~   ** The solution for one or more of the Air Loop HVAC systems did not appear to converge
   **   ~~~   ** Air System Named = CENTRAL SYSTEM did not converge for mass flow rate
   **   ~~~   ** Check values should be zero. Most Recent values listed first.
   **   ~~~   ** Demand-to-Supply interface mass flow rate check value iteration history trace: 5.250863E-002,5.250863E-002,5.250863E-002,5.250863E-002,5.250863E-002,5.250863E-002,5.250863E-002,5.250863E-002,5.250863E-002,5.250863E-002,
   **   ~~~   ** Supply-to-demand interface deck 1 mass flow rate check value iteration history trace: 5.250863E-002,5.250863E-002,5.250863E-002,5.250863E-002,5.250863E-002,5.250863E-002,5.250863E-002,5.250863E-002,5.250863E-002,5.250863E-002,
   **   ~~~   ** Air System Named = CENTRAL SYSTEM did not converge for energy
   **   ~~~   ** Check values should be zero. Most Recent values listed first.
   **   ~~~   ** Demand-to-Supply interface energy check value iteration history trace: 1289.300964,1289.300964,1289.300964,1289.300964,1289.300964,1289.300964,1289.300964,1289.300965,1289.300965,1289.300965,
   **   ~~~   ** Supply-to-demand interface deck 1 energy check value iteration history trace: 837.029841,837.029841,837.029841,837.029841,837.029841,837.029841,837.029841,837.029841,837.029841,837.029841,
   ** Warning ** SimHVAC: Maximum iterations (20) exceeded for all HVAC loops, at ANNUAL, 11/30 04:45 - 05:00
   **   ~~~   ** The solution for one or more of the Air Loop HVAC systems did not appear to converge
   **   ~~~   ** Air System Named = CENTRAL SYSTEM did not converge for mass flow rate
   **   ~~~   ** Check values should be zero. Most Recent values listed first.
   **   ~~~   ** Demand-to-Supply interface mass flow rate check value iteration history trace: 0.118287,0.118287,0.118287,0.118287,0.118287,0.118287,0.118287,0.118287,0.118287,0.118287,
   **   ~~~   ** Supply-to-demand interface deck 1 mass flow rate check value iteration history trace: 0.118287,0.118287,0.118287,0.118287,0.118287,0.118287,0.118287,0.118287,0.118287,0.118287,
   **   ~~~   ** Air System Named = CENTRAL SYSTEM did not converge for energy
   **   ~~~   ** Check values should be zero. Most Recent values listed first.
   **   ~~~   ** Demand-to-Supply interface energy check value iteration history trace: 2951.114766,2951.114766,2951.114767,2951.114767,2951.114767,2951.114767,2951.114768,2951.114768,2951.114768,2951.114768,
   **   ~~~   ** Supply-to-demand interface deck 1 energy check value iteration history trace: 1991.380164,1991.380164,1991.380164,1991.380164,1991.380164,1991.380165,1991.380165,1991.380165,1991.380165,1991.380165,
   ** Warning ** SimHVAC: Maximum iterations (20) exceeded for all HVAC loops, at ANNUAL, 12/03 11:30 - 11:45
   **   ~~~   ** The solution for one or more of the Air Loop HVAC systems did not appear to converge
   **   ~~~   ** Air System Named = CENTRAL SYSTEM did not converge for mass flow rate
   **   ~~~   ** Check values should be zero. Most Recent values listed first.
   **   ~~~   ** Demand-to-Supply interface mass flow rate check value iteration history trace: 3.260738E-002,3.260738E-002,3.260738E-002,3.260738E-002,3.260738E-002,3.260738E-002,3.260738E-002,3.260738E-002,3.260738E-002,3.260738E-002,
   **   ~~~   ** Supply-to-demand interface deck 1 mass flow rate check value iteration history trace: 3.260738E-002,3.260738E-002,3.260738E-002,3.260738E-002,3.260738E-002,3.260738E-002,3.260738E-002,3.260738E-002,3.260738E-002,3.260738E-002,
   **   ~~~   ** Air System Named = CENTRAL SYSTEM did not converge for energy
   **   ~~~   ** Check values should be zero. Most Recent values listed first.
   **   ~~~   ** Demand-to-Supply interface energy check value iteration history trace: 764.666788,764.666788,764.666788,764.666788,764.666788,764.666788,764.666788,764.666788,764.666788,764.666788,
   **   ~~~   ** Supply-to-demand interface deck 1 energy check value iteration history trace: 373.938952,373.938952,373.938952,373.938952,373.938952,373.938952,373.938952,373.938952,373.938952,373.938952,
   ************* Simulation Error Summary *************
   ** Warning ** The following Report Variables were requested but not generated -- check.rdd file
   **   ~~~   ** Either the IDF did not contain these elements, the variable name is misspelled,
   **   ~~~   ** or the requested variable is an advanced output which requires Output : Diagnostics, DisplayAdvancedReportVariables;
   ************* Key=*, VarName=BASEBOARD TOTAL HEATING ENERGY, Frequency=
   ************* Key=*, VarName=WATER HEATER NATURALGAS ENERGY, Frequency=
   ************* Key=*, VarName=COOLING COIL TOTAL HEATING ENERGY, Frequency=
   ************* There are 34 unused schedules in input.
   ************* There are 388 unused week schedules in input.
   ************* There are 396 unused day schedules in input.
   ************* Use Output:Diagnostics,DisplayUnusedSchedules; to see them.
   *************
   ************* ===== Recurring Error Summary =====
   ************* The following recurring error messages occurred.
   *************
   *************  ** Warning ** "TOTAL HOT WATER LOAD" - Target water temperature should be less than or equal to the hot water temperature error continues...
   *************  **   ~~~   **   This error occurred 189609 total times;
   *************  **   ~~~   **   during Warmup 0 times;
   *************  **   ~~~   **   during Sizing 0 times.
   *************  **   ~~~   **   Max=11.659836  Min=2.851556E-005
   *************
   *************  ** Warning ** SimHVAC: Exceeding Maximum iterations for all HVAC loops, during ANNUAL continues
   *************  **   ~~~   **   This error occurred 4 total times;
   *************  **   ~~~   **   during Warmup 0 times;
   *************  **   ~~~   **   during Sizing 0 times.
   *************
   *************
   ************* ===== Final Error Summary =====
   ************* The following error categories occurred.  Consider correcting or noting.
   ************* Nominally Unused Constructions
   ************* ..The nominally unused constructions warning is provided to alert you to potential conditions that can cause
   ************* ..extra time during simulation. Each construction is calculated by the algorithm indicated in the HeatBalanceAlgorithm
   ************* ..object. You may remove the constructions indicated (when you use the DisplayExtraWarnings option).
   *************
   ************* EnergyPlus Warmup Error Summary. During Warmup: 1 Warning; 0 Severe Errors.
   ************* EnergyPlus Sizing Error Summary. During Sizing: 4 Warning; 0 Severe Errors.
   ************* EnergyPlus Completed Successfully-- 189644 Warning; 0 Severe Errors; Elapsed Time=00hr 01min 49.58sec
