Program Version,EnergyPlus, Version 22.2.0-c249759bad, YMD=2023.09.01 15:02,
   ************* Beginning Zone Sizing Calculations
   ** Warning ** ProcessScheduleInput: Schedule:Constant="ALWAYS ON DISCRETE", Schedule Type Limits Name="ONOFF" not found -- will not be validated
   ** Warning ** Foundation:Kiva="KIVA FOUNDATION", no Interior Horizontal Insulation Material Name defined
   **   ~~~   ** Interior Horizontal Insulation Depth will not be used.
   ** Warning ** CheckUsedConstructions: There are 15 nominally unused constructions in input.
   **   ~~~   ** Each Unused construction is shown.
   ************* Construction=INTERIOR FLOOR
   ************* Construction=INTERIOR WINDOW
   ************* Construction=EXTERIOR DOOR
   ************* Construction=INTERIOR DOOR
   ************* Construction=GABLE CONSTRUCTION
   ************* Construction=CRAWL_FLOOR
   ************* Construction=INSULATED PIPE
   ************* Construction=PLAIN PIPE
   ************* Construction=TDD PIPE
   ************* Construction=TDD DOME
   ************* Construction=TDD DIFFUSER
   ************* Construction=CRAWL WALL
   ************* Construction=CEILING-FLOOR-LAYER
   ************* Construction=SLAB CONSTRUCTION W FULL R10 INSULATION
   ************* Construction=SLAB CONSTRUCTION W FULL R5 INSULATION
   ** Warning ** GetDXCoils: Coil:Heating:DX:SingleSpeed="DX_HEATING_COIL" curve values
   **   ~~~   ** ... Defrost Energy Input Ratio Function of Temperature Curve Name = DEFROSTEIR output is not equal to 1.0 (+ or - 10%) at rated conditions.
   **   ~~~   ** ... Curve output at rated conditions = 0.152
   ************* Beginning System Sizing Calculations
   ************* Beginning Plant Sizing Calculations
   ** Warning ** SizeDXCoil Coil:Cooling:DX:SingleSpeed DX_COOLING_COIL
   **   ~~~   ** ...Gross Rated Total Cooling Capacity [W] will be limited by the maximum rated volume flow per rated total capacity ratio.
   **   ~~~   ** ...DX coil volume flow rate ( m3/s ) = 0.414056
   **   ~~~   ** ...Requested capacity ( W ) = 6239.490
   **   ~~~   ** ...Requested flow/capacity ratio ( m3/s/W ) = 6.636E-005
   **   ~~~   ** ...Maximum flow/capacity ratio ( m3/s/W ) = 6.041E-005
   **   ~~~   ** ...Adjusted capacity ( W ) = 6854.097
   ** Warning ** SizeDXCoil Coil:Heating:DX:SingleSpeed DX_HEATING_COIL
   **   ~~~   ** ...Gross Rated Heating Capacity [W] will be limited by the maximum rated volume flow per rated total capacity ratio.
   **   ~~~   ** ...DX coil volume flow rate ( m3/s ) = 0.414056
   **   ~~~   ** ...Requested capacity ( W ) = 6854.097
   **   ~~~   ** ...Requested flow/capacity ratio ( m3/s/W ) = 6.041E-005
   **   ~~~   ** ...Maximum flow/capacity ratio ( m3/s/W ) = 6.041E-005
   **   ~~~   ** ...Adjusted capacity ( W ) = 6854.097
   ** Warning ** Coil:WaterHeating:AirToWaterHeatPump:Wrapped "HEAT PUMP WATER HEATER EVAPORATOR": Rated air volume flow rate per watt of rated total water heating capacity is out of range
   **   ~~~   ** Min Rated Vol Flow Per Watt=[4.027E-005], Rated Vol Flow Per Watt=[1.386E-004], Max Rated Vol Flow Per Watt=[8.056E-005]. See Input-Output Reference Manual for valid range.
   ** Warning ** Water heater = WATER HEATER TANK:  Recovery Efficiency and Energy Factor could not be calculated during the test for standard ratings
   **   ~~~   ** Setpoint was never recovered and/or heater never turned on
   ** Warning ** Check input. Pump nominal power or motor efficiency is set to 0, for pump=MAINS PRESSURE
   ** Warning ** Output:Meter: invalid Key Name="ELECTRIC_RANGE:INTERIOREQUIPMENT:ELECTRICITY" - not found.
   ** Warning ** Output:Meter: invalid Key Name="ELECTRIC_DRYER:INTERIOREQUIPMENT:ELECTRICITY" - not found.
   ** Warning ** Output:Meter: invalid Key Name="HEATRECOVERY:ELECTRICITY" - not found.
   ** Warning ** Output:Meter: invalid Key Name="HEATING:NATURALGAS" - not found.
   ** Warning ** Output:Meter: invalid Key Name="WATERSYSTEMS:NATURALGAS" - not found.
   ** Warning ** Output:Meter: invalid Key Name="PROPANE:FACILITY" - not found.
   ** Warning ** Output:Meter: invalid Key Name="HEATING:PROPANE" - not found.
   ************* Testing Individual Branch Integrity
   ************* All Branches passed integrity testing
   ************* Testing Individual Supply Air Path Integrity
   ************* All Supply Air Paths passed integrity testing
   ************* Testing Individual Return Air Path Integrity
   ************* All Return Air Paths passed integrity testing
   ************* No node connection errors were found.
   ************* Beginning Simulation
   ** Warning ** AirflowNetwork::Solver::validate_distribution: Heat pump water heater is simulated along with an AirflowNetwork but is not included in the AirflowNetwork.
   ** Warning ** CalcEquipmentFlowRates: "TOTAL HOT WATER LOAD" - Target water temperature is greater than the hot water temperature by (1.73 C)
   **   ~~~   **  Environment=EXTREME_WINTER, at Simulation time=02/05 06:00 - 06:15
   **   ~~~   ** ...target water temperature     = 53.33 C
   **   ~~~   ** ...hot water temperature        = 51.60 C
   **   ~~~   ** ...Target water temperature should be less than or equal to the hot water temperature. Verify temperature setpoints and schedules.
   ** Warning ** SimHVAC: Maximum iterations (20) exceeded for all HVAC loops, at ANNUAL, 03/19 22:23 - 22:30
   **   ~~~   ** The solution for one or more of the Air Loop HVAC systems did not appear to converge
   **   ~~~   ** Air System Named = CENTRAL SYSTEM did not converge for mass flow rate
   **   ~~~   ** Check values should be zero. Most Recent values listed first.
   **   ~~~   ** Demand-to-Supply interface mass flow rate check value iteration history trace: 9.580888E-002,9.580888E-002,9.580888E-002,9.580888E-002,9.580888E-002,9.580888E-002,9.580888E-002,9.580888E-002,9.580888E-002,9.580888E-002,
   **   ~~~   ** Supply-to-demand interface deck 1 mass flow rate check value iteration history trace: 9.580888E-002,9.580888E-002,9.580888E-002,9.580888E-002,9.580888E-002,9.580888E-002,9.580888E-002,9.580888E-002,9.580888E-002,9.580888E-002,
   **   ~~~   ** Air System Named = CENTRAL SYSTEM did not converge for energy
   **   ~~~   ** Check values should be zero. Most Recent values listed first.
   **   ~~~   ** Demand-to-Supply interface energy check value iteration history trace: 1780.077607,1780.077607,1780.077607,1780.077606,1780.077606,1780.077606,1780.077606,1780.077606,1780.077606,1780.077606,
   **   ~~~   ** Supply-to-demand interface deck 1 energy check value iteration history trace: 2758.812892,2758.812892,2758.812892,2758.812891,2758.812891,2758.812891,2758.812891,2758.812891,2758.812891,2758.812890,
   ** Warning ** SimHVAC: Maximum iterations (20) exceeded for all HVAC loops, at ANNUAL, 04/14 21:30 - 21:38
   **   ~~~   ** The solution for one or more of the Air Loop HVAC systems did not appear to converge
   **   ~~~   ** Air System Named = CENTRAL SYSTEM did not converge for mass flow rate
   **   ~~~   ** Check values should be zero. Most Recent values listed first.
   **   ~~~   ** Demand-to-Supply interface mass flow rate check value iteration history trace: 7.215787E-002,7.215787E-002,7.215787E-002,7.215787E-002,7.215787E-002,7.215787E-002,7.215787E-002,7.215787E-002,7.215787E-002,7.215787E-002,
   **   ~~~   ** Supply-to-demand interface deck 1 mass flow rate check value iteration history trace: 7.215787E-002,7.215787E-002,7.215787E-002,7.215787E-002,7.215787E-002,7.215787E-002,7.215787E-002,7.215787E-002,7.215787E-002,7.215787E-002,
   **   ~~~   ** Air System Named = CENTRAL SYSTEM did not converge for energy
   **   ~~~   ** Check values should be zero. Most Recent values listed first.
   **   ~~~   ** Demand-to-Supply interface energy check value iteration history trace: 1429.342811,1429.342811,1429.342811,1429.342811,1429.342811,1429.342811,1429.342811,1429.342811,1429.342811,1429.342811,
   **   ~~~   ** Supply-to-demand interface deck 1 energy check value iteration history trace: 2491.718635,2491.718635,2491.718635,2491.718635,2491.718635,2491.718635,2491.718635,2491.718635,2491.718635,2491.718635,
   ** Warning ** SimHVAC: Maximum iterations (20) exceeded for all HVAC loops, at ANNUAL, 04/15 08:35 - 08:38
   **   ~~~   ** The solution for one or more of the Air Loop HVAC systems did not appear to converge
   **   ~~~   ** Air System Named = CENTRAL SYSTEM did not converge for mass flow rate
   **   ~~~   ** Check values should be zero. Most Recent values listed first.
   **   ~~~   ** Demand-to-Supply interface mass flow rate check value iteration history trace: 7.803036E-002,7.803036E-002,7.803036E-002,7.803036E-002,7.803036E-002,7.803036E-002,7.803036E-002,7.803036E-002,7.803036E-002,7.803036E-002,
   **   ~~~   ** Supply-to-demand interface deck 1 mass flow rate check value iteration history trace: 7.803036E-002,7.803036E-002,7.803036E-002,7.803036E-002,7.803036E-002,7.803036E-002,7.803036E-002,7.803036E-002,7.803036E-002,7.803036E-002,
   **   ~~~   ** Air System Named = CENTRAL SYSTEM did not converge for energy
   **   ~~~   ** Check values should be zero. Most Recent values listed first.
   **   ~~~   ** Demand-to-Supply interface energy check value iteration history trace: 1546.354488,1546.354488,1546.354488,1546.354488,1546.354488,1546.354488,1546.354488,1546.354488,1546.354488,1546.354488,
   **   ~~~   ** Supply-to-demand interface deck 1 energy check value iteration history trace: 2732.115894,2732.115893,2732.115893,2732.115893,2732.115893,2732.115893,2732.115893,2732.115893,2732.115893,2732.115893,
   ** Warning ** SimHVAC: Maximum iterations (20) exceeded for all HVAC loops, at ANNUAL, 05/06 11:15 - 11:30
   **   ~~~   ** The solution for one or more of the Air Loop HVAC systems did not appear to converge
   **   ~~~   ** Air System Named = CENTRAL SYSTEM did not converge for mass flow rate
   **   ~~~   ** Check values should be zero. Most Recent values listed first.
   **   ~~~   ** Demand-to-Supply interface mass flow rate check value iteration history trace: 3.503155E-002,3.503155E-002,3.503155E-002,3.503155E-002,3.503155E-002,3.503155E-002,3.503155E-002,3.503155E-002,3.503155E-002,3.503155E-002,
   **   ~~~   ** Supply-to-demand interface deck 1 mass flow rate check value iteration history trace: 3.503155E-002,3.503155E-002,3.503155E-002,3.503155E-002,3.503155E-002,3.503155E-002,3.503155E-002,3.503155E-002,3.503155E-002,3.503155E-002,
   **   ~~~   ** Air System Named = CENTRAL SYSTEM did not converge for energy
   **   ~~~   ** Check values should be zero. Most Recent values listed first.
   **   ~~~   ** Demand-to-Supply interface energy check value iteration history trace: 692.507452,692.507452,692.507452,692.507452,692.507452,692.507452,692.507452,692.507452,692.507452,692.507452,
   **   ~~~   ** Supply-to-demand interface deck 1 energy check value iteration history trace: 1261.015438,1261.015438,1261.015438,1261.015438,1261.015437,1261.015437,1261.015437,1261.015437,1261.015437,1261.015437,
   ** Warning ** SimHVAC: Maximum iterations (20) exceeded for all HVAC loops, at ANNUAL, 05/11 07:45 - 08:00
   **   ~~~   ** The solution for one or more of the Air Loop HVAC systems did not appear to converge
   **   ~~~   ** Air System Named = CENTRAL SYSTEM did not converge for mass flow rate
   **   ~~~   ** Check values should be zero. Most Recent values listed first.
   **   ~~~   ** Demand-to-Supply interface mass flow rate check value iteration history trace: 6.996306E-002,6.996306E-002,6.996306E-002,6.996306E-002,6.996306E-002,6.996306E-002,6.996306E-002,6.996306E-002,6.996306E-002,6.996306E-002,
   **   ~~~   ** Supply-to-demand interface deck 1 mass flow rate check value iteration history trace: 6.996306E-002,6.996306E-002,6.996306E-002,6.996306E-002,6.996306E-002,6.996306E-002,6.996306E-002,6.996306E-002,6.996306E-002,6.996306E-002,
   **   ~~~   ** Air System Named = CENTRAL SYSTEM did not converge for energy
   **   ~~~   ** Check values should be zero. Most Recent values listed first.
   **   ~~~   ** Demand-to-Supply interface energy check value iteration history trace: 1375.091542,1375.091542,1375.091542,1375.091541,1375.091541,1375.091541,1375.091541,1375.091541,1375.091541,1375.091541,
   **   ~~~   ** Supply-to-demand interface deck 1 energy check value iteration history trace: 2398.163554,2398.163553,2398.163553,2398.163553,2398.163553,2398.163553,2398.163553,2398.163553,2398.163553,2398.163553,
   ** Warning ** SimHVAC: Maximum iterations (20) exceeded for all HVAC loops, at ANNUAL, 05/18 06:15 - 06:30
   **   ~~~   ** The solution for one or more of the Air Loop HVAC systems did not appear to converge
   **   ~~~   ** Air System Named = CENTRAL SYSTEM did not converge for mass flow rate
   **   ~~~   ** Check values should be zero. Most Recent values listed first.
   **   ~~~   ** Demand-to-Supply interface mass flow rate check value iteration history trace: 8.247234E-002,8.247234E-002,8.247234E-002,8.247234E-002,8.247234E-002,8.247234E-002,8.247234E-002,8.247234E-002,8.247234E-002,8.247234E-002,
   **   ~~~   ** Supply-to-demand interface deck 1 mass flow rate check value iteration history trace: 8.247234E-002,8.247234E-002,8.247234E-002,8.247234E-002,8.247234E-002,8.247234E-002,8.247234E-002,8.247234E-002,8.247234E-002,8.247234E-002,
   **   ~~~   ** Air System Named = CENTRAL SYSTEM did not converge for energy
   **   ~~~   ** Check values should be zero. Most Recent values listed first.
   **   ~~~   ** Demand-to-Supply interface energy check value iteration history trace: 1633.996092,1633.996092,1633.996092,1633.996092,1633.996092,1633.996092,1633.996092,1633.996092,1633.996092,1633.996092,
   **   ~~~   ** Supply-to-demand interface deck 1 energy check value iteration history trace: 2823.002371,2823.002371,2823.002371,2823.002370,2823.002370,2823.002370,2823.002370,2823.002370,2823.002370,2823.002370,
   ** Warning ** SimHVAC: Maximum iterations (20) exceeded for all HVAC loops, at ANNUAL, 09/11 19:08 - 19:11
   **   ~~~   ** The solution for one or more of the Air Loop HVAC systems did not appear to converge
   **   ~~~   ** Air System Named = CENTRAL SYSTEM did not converge for mass flow rate
   **   ~~~   ** Check values should be zero. Most Recent values listed first.
   **   ~~~   ** Demand-to-Supply interface mass flow rate check value iteration history trace: 0.204228,0.204228,0.204228,0.204228,0.204228,0.204228,0.204228,0.204228,0.204228,0.204228,
   **   ~~~   ** Supply-to-demand interface deck 1 mass flow rate check value iteration history trace: 0.204228,0.204228,0.204228,0.204228,0.204228,0.204228,0.204228,0.204228,0.204228,0.204228,
   **   ~~~   ** Air System Named = CENTRAL SYSTEM did not converge for energy
   **   ~~~   ** Check values should be zero. Most Recent values listed first.
   **   ~~~   ** Demand-to-Supply interface energy check value iteration history trace: 4847.189567,4847.189568,4847.189568,4847.189568,4847.189568,4847.189569,4847.189569,4847.189569,4847.189570,4847.189570,
   **   ~~~   ** Supply-to-demand interface deck 1 energy check value iteration history trace: 1837.821794,1837.821794,1837.821794,1837.821795,1837.821795,1837.821795,1837.821795,1837.821795,1837.821795,1837.821795,
   ** Warning ** SimHVAC: Maximum iterations (20) exceeded for all HVAC loops, at ANNUAL, 10/15 11:05 - 11:10
   **   ~~~   ** The solution for one or more of the Air Loop HVAC systems did not appear to converge
   **   ~~~   ** Air System Named = CENTRAL SYSTEM did not converge for mass flow rate
   **   ~~~   ** Check values should be zero. Most Recent values listed first.
   **   ~~~   ** Demand-to-Supply interface mass flow rate check value iteration history trace: 7.614852E-002,7.614852E-002,7.614852E-002,7.614852E-002,7.614852E-002,7.614852E-002,7.614852E-002,7.614852E-002,7.614852E-002,7.614852E-002,
   **   ~~~   ** Supply-to-demand interface deck 1 mass flow rate check value iteration history trace: 7.614852E-002,7.614852E-002,7.614852E-002,7.614852E-002,7.614852E-002,7.614852E-002,7.614852E-002,7.614852E-002,7.614852E-002,7.614852E-002,
   **   ~~~   ** Air System Named = CENTRAL SYSTEM did not converge for energy
   **   ~~~   ** Check values should be zero. Most Recent values listed first.
   **   ~~~   ** Demand-to-Supply interface energy check value iteration history trace: 1498.242020,1498.242020,1498.242020,1498.242020,1498.242019,1498.242019,1498.242019,1498.242019,1498.242019,1498.242019,
   **   ~~~   ** Supply-to-demand interface deck 1 energy check value iteration history trace: 2629.413109,2629.413108,2629.413108,2629.413108,2629.413108,2629.413108,2629.413108,2629.413108,2629.413108,2629.413108,
   ** Warning ** SimHVAC: Maximum iterations (20) exceeded for all HVAC loops, at ANNUAL, 10/18 14:53 - 15:00
   **   ~~~   ** The solution for one or more of the Air Loop HVAC systems did not appear to converge
   **   ~~~   ** Air System Named = CENTRAL SYSTEM did not converge for mass flow rate
   **   ~~~   ** Check values should be zero. Most Recent values listed first.
   **   ~~~   ** Demand-to-Supply interface mass flow rate check value iteration history trace: 7.037375E-002,7.037375E-002,7.037375E-002,7.037375E-002,7.037375E-002,7.037375E-002,7.037375E-002,7.037375E-002,7.037375E-002,7.037375E-002,
   **   ~~~   ** Supply-to-demand interface deck 1 mass flow rate check value iteration history trace: 7.037375E-002,7.037375E-002,7.037375E-002,7.037375E-002,7.037375E-002,7.037375E-002,7.037375E-002,7.037375E-002,7.037375E-002,7.037375E-002,
   **   ~~~   ** Air System Named = CENTRAL SYSTEM did not converge for energy
   **   ~~~   ** Check values should be zero. Most Recent values listed first.
   **   ~~~   ** Demand-to-Supply interface energy check value iteration history trace: 1388.051913,1388.051913,1388.051913,1388.051913,1388.051913,1388.051913,1388.051913,1388.051913,1388.051913,1388.051913,
   **   ~~~   ** Supply-to-demand interface deck 1 energy check value iteration history trace: 2471.039917,2471.039917,2471.039917,2471.039917,2471.039917,2471.039916,2471.039916,2471.039916,2471.039916,2471.039916,
   ** Warning ** SimHVAC: Maximum iterations (20) exceeded for all HVAC loops, at ANNUAL, 11/02 17:00 - 17:15
   **   ~~~   ** The solution for one or more of the Air Loop HVAC systems did not appear to converge
   **   ~~~   ** Air System Named = CENTRAL SYSTEM did not converge for mass flow rate
   **   ~~~   ** Check values should be zero. Most Recent values listed first.
   **   ~~~   ** Demand-to-Supply interface mass flow rate check value iteration history trace: 7.260771E-002,7.260771E-002,7.260771E-002,7.260771E-002,7.260771E-002,7.260771E-002,7.260771E-002,7.260771E-002,7.260771E-002,7.260771E-002,
   **   ~~~   ** Supply-to-demand interface deck 1 mass flow rate check value iteration history trace: 7.260771E-002,7.260771E-002,7.260771E-002,7.260771E-002,7.260771E-002,7.260771E-002,7.260771E-002,7.260771E-002,7.260771E-002,7.260771E-002,
   **   ~~~   ** Air System Named = CENTRAL SYSTEM did not converge for energy
   **   ~~~   ** Check values should be zero. Most Recent values listed first.
   **   ~~~   ** Demand-to-Supply interface energy check value iteration history trace: 1435.821871,1435.821870,1435.821870,1435.821870,1435.821870,1435.821870,1435.821870,1435.821870,1435.821870,1435.821870,
   **   ~~~   ** Supply-to-demand interface deck 1 energy check value iteration history trace: 2535.193028,2535.193028,2535.193028,2535.193028,2535.193028,2535.193028,2535.193027,2535.193027,2535.193027,2535.193027,
   ** Warning ** SimHVAC: Maximum iterations (20) exceeded for all HVAC loops, at ANNUAL, 11/04 19:20 - 19:25
   **   ~~~   ** The solution for one or more of the Air Loop HVAC systems did not appear to converge
   **   ~~~   ** Air System Named = CENTRAL SYSTEM did not converge for mass flow rate
   **   ~~~   ** Check values should be zero. Most Recent values listed first.
   **   ~~~   ** Demand-to-Supply interface mass flow rate check value iteration history trace: 0.117285,0.117285,0.117285,0.117285,0.117285,0.117285,0.117285,0.117285,0.117285,0.117285,
   **   ~~~   ** Supply-to-demand interface deck 1 mass flow rate check value iteration history trace: 0.117285,0.117285,0.117285,0.117285,0.117285,0.117285,0.117285,0.117285,0.117285,0.117285,
   **   ~~~   ** Air System Named = CENTRAL SYSTEM did not converge for energy
   **   ~~~   ** Check values should be zero. Most Recent values listed first.
   **   ~~~   ** Demand-to-Supply interface energy check value iteration history trace: 2320.902588,2320.902588,2320.902588,2320.902588,2320.902587,2320.902587,2320.902587,2320.902587,2320.902587,2320.902586,
   **   ~~~   ** Supply-to-demand interface deck 1 energy check value iteration history trace: 3456.746067,3456.746066,3456.746066,3456.746066,3456.746065,3456.746065,3456.746065,3456.746065,3456.746064,3456.746064,
   ** Warning ** SimHVAC: Maximum iterations (20) exceeded for all HVAC loops, at ANNUAL, 12/04 13:23 - 13:30
   **   ~~~   ** The solution for one or more of the Air Loop HVAC systems did not appear to converge
   **   ~~~   ** Air System Named = CENTRAL SYSTEM did not converge for mass flow rate
   **   ~~~   ** Check values should be zero. Most Recent values listed first.
   **   ~~~   ** Demand-to-Supply interface mass flow rate check value iteration history trace: 8.118319E-002,8.118319E-002,8.118319E-002,8.118319E-002,8.118319E-002,8.118319E-002,8.118319E-002,8.118319E-002,8.118319E-002,8.118319E-002,
   **   ~~~   ** Supply-to-demand interface deck 1 mass flow rate check value iteration history trace: 8.118319E-002,8.118319E-002,8.118319E-002,8.118319E-002,8.118319E-002,8.118319E-002,8.118319E-002,8.118319E-002,8.118319E-002,8.118319E-002,
   **   ~~~   ** Air System Named = CENTRAL SYSTEM did not converge for energy
   **   ~~~   ** Check values should be zero. Most Recent values listed first.
   **   ~~~   ** Demand-to-Supply interface energy check value iteration history trace: 1608.857707,1608.857707,1608.857707,1608.857707,1608.857707,1608.857707,1608.857707,1608.857707,1608.857707,1608.857706,
   **   ~~~   ** Supply-to-demand interface deck 1 energy check value iteration history trace: 2796.168876,2796.168876,2796.168876,2796.168876,2796.168875,2796.168875,2796.168875,2796.168875,2796.168875,2796.168875,
   ************* Simulation Error Summary *************
   ** Warning ** The following Report Variables were requested but not generated -- check.rdd file
   **   ~~~   ** Either the IDF did not contain these elements, the variable name is misspelled,
   **   ~~~   ** or the requested variable is an advanced output which requires Output : Diagnostics, DisplayAdvancedReportVariables;
   ************* Key=*, VarName=BASEBOARD TOTAL HEATING ENERGY, Frequency=
   ************* Key=*, VarName=WATER HEATER NATURALGAS ENERGY, Frequency=
   ************* Key=*, VarName=COOLING COIL TOTAL HEATING ENERGY, Frequency=
   ************* There are 34 unused schedules in input.
   ************* There are 388 unused week schedules in input.
   ************* There are 396 unused day schedules in input.
   ************* Use Output:Diagnostics,DisplayUnusedSchedules; to see them.
   *************
   ************* ===== Recurring Error Summary =====
   ************* The following recurring error messages occurred.
   *************
   *************  ** Warning ** "TOTAL HOT WATER LOAD" - Target water temperature should be less than or equal to the hot water temperature error continues...
   *************  **   ~~~   **   This error occurred 77003 total times;
   *************  **   ~~~   **   during Warmup 0 times;
   *************  **   ~~~   **   during Sizing 0 times.
   *************  **   ~~~   **   Max=12.855591  Min=4.527085E-004
   *************
   *************
   ************* ===== Final Error Summary =====
   ************* The following error categories occurred.  Consider correcting or noting.
   ************* Nominally Unused Constructions
   ************* ..The nominally unused constructions warning is provided to alert you to potential conditions that can cause
   ************* ..extra time during simulation. Each construction is calculated by the algorithm indicated in the HeatBalanceAlgorithm
   ************* ..object. You may remove the constructions indicated (when you use the DisplayExtraWarnings option).
   *************
   ************* EnergyPlus Warmup Error Summary. During Warmup: 1 Warning; 0 Severe Errors.
   ************* EnergyPlus Sizing Error Summary. During Sizing: 4 Warning; 0 Severe Errors.
   ************* EnergyPlus Completed Successfully-- 77034 Warning; 0 Severe Errors; Elapsed Time=00hr 04min 55.90sec
