Program Version,EnergyPlus, Version 22.2.0-c249759bad, YMD=2023.09.01 19:52,
   ************* Beginning Zone Sizing Calculations
   ** Warning ** ProcessScheduleInput: Schedule:Constant="ALWAYS ON DISCRETE", Schedule Type Limits Name="ONOFF" not found -- will not be validated
   ** Warning ** Foundation:Kiva="KIVA FOUNDATION", no Interior Horizontal Insulation Material Name defined
   **   ~~~   ** Interior Horizontal Insulation Depth will not be used.
   ** Warning ** CheckUsedConstructions: There are 15 nominally unused constructions in input.
   **   ~~~   ** Each Unused construction is shown.
   ************* Construction=INTERIOR FLOOR
   ************* Construction=INTERIOR WINDOW
   ************* Construction=EXTERIOR DOOR
   ************* Construction=INTERIOR DOOR
   ************* Construction=GABLE CONSTRUCTION
   ************* Construction=CRAWL_FLOOR
   ************* Construction=INSULATED PIPE
   ************* Construction=PLAIN PIPE
   ************* Construction=TDD PIPE
   ************* Construction=TDD DOME
   ************* Construction=TDD DIFFUSER
   ************* Construction=CRAWL WALL
   ************* Construction=CEILING-FLOOR-LAYER
   ************* Construction=SLAB CONSTRUCTION W FULL R10 INSULATION
   ************* Construction=SLAB CONSTRUCTION W FULL R5 INSULATION
   ** Warning ** GetDXCoils: Coil:Heating:DX:SingleSpeed="DX_HEATING_COIL" curve values
   **   ~~~   ** ... Defrost Energy Input Ratio Function of Temperature Curve Name = DEFROSTEIR output is not equal to 1.0 (+ or - 10%) at rated conditions.
   **   ~~~   ** ... Curve output at rated conditions = 0.152
   ************* Beginning System Sizing Calculations
   ************* Beginning Plant Sizing Calculations
   ** Warning ** Coil:WaterHeating:AirToWaterHeatPump:Wrapped "HEAT PUMP WATER HEATER EVAPORATOR": Rated air volume flow rate per watt of rated total water heating capacity is out of range
   **   ~~~   ** Min Rated Vol Flow Per Watt=[4.027E-005], Rated Vol Flow Per Watt=[1.510E-004], Max Rated Vol Flow Per Watt=[8.056E-005]. See Input-Output Reference Manual for valid range.
   ************* SizeFan: : Potential issue with equipment sizing for Fan:OnOff HEAT PUMP WATER HEATER FAN
   **   ~~~   ** User-Specified Maximum Flow Rate [m3/s] = 0.22653
   **   ~~~   ** differs from Design Size Maximum Flow Rate [m3/s] = 7.55250E-002
   **   ~~~   ** This may, or may not, indicate mismatched component sizes.
   **   ~~~   ** Verify that the value entered is intended and is consistent with other components.
   ** Warning ** Water heater = WATER HEATER TANK:  Recovery Efficiency and Energy Factor could not be calculated during the test for standard ratings
   **   ~~~   ** Setpoint was never recovered and/or heater never turned on
   ** Warning ** Check input. Pump nominal power or motor efficiency is set to 0, for pump=MAINS PRESSURE
   ** Warning ** Output:Meter: invalid Key Name="ELECTRIC_RANGE:INTERIOREQUIPMENT:ELECTRICITY" - not found.
   ** Warning ** Output:Meter: invalid Key Name="ELECTRIC_DRYER:INTERIOREQUIPMENT:ELECTRICITY" - not found.
   ** Warning ** Output:Meter: invalid Key Name="HEATRECOVERY:ELECTRICITY" - not found.
   ** Warning ** Output:Meter: invalid Key Name="HEATING:NATURALGAS" - not found.
   ** Warning ** Output:Meter: invalid Key Name="WATERSYSTEMS:NATURALGAS" - not found.
   ** Warning ** Output:Meter: invalid Key Name="PROPANE:FACILITY" - not found.
   ** Warning ** Output:Meter: invalid Key Name="HEATING:PROPANE" - not found.
   ************* Testing Individual Branch Integrity
   ************* All Branches passed integrity testing
   ************* Testing Individual Supply Air Path Integrity
   ************* All Supply Air Paths passed integrity testing
   ************* Testing Individual Return Air Path Integrity
   ************* All Return Air Paths passed integrity testing
   ************* No node connection errors were found.
   ************* Beginning Simulation
   ** Warning ** AirflowNetwork::Solver::validate_distribution: Heat pump water heater is simulated along with an AirflowNetwork but is not included in the AirflowNetwork.
   ** Warning ** CalcEquipmentFlowRates: "TOTAL HOT WATER LOAD" - Target water temperature is greater than the hot water temperature by (5.72 C)
   **   ~~~   **  Environment=EXTREME_WINTER, at Simulation time=01/20 06:00 - 06:15
   **   ~~~   ** ...target water temperature     = 53.33 C
   **   ~~~   ** ...hot water temperature        = 47.61 C
   **   ~~~   ** ...Target water temperature should be less than or equal to the hot water temperature. Verify temperature setpoints and schedules.
   ** Warning ** SimHVAC: Maximum iterations (20) exceeded for all HVAC loops, at ANNUAL, 01/14 15:15 - 15:30
   **   ~~~   ** The solution for one or more of the Air Loop HVAC systems did not appear to converge
   **   ~~~   ** Air System Named = CENTRAL SYSTEM did not converge for mass flow rate
   **   ~~~   ** Check values should be zero. Most Recent values listed first.
   **   ~~~   ** Demand-to-Supply interface mass flow rate check value iteration history trace: 8.831595E-002,8.831595E-002,8.831595E-002,8.831595E-002,8.831595E-002,8.831595E-002,8.831595E-002,8.831595E-002,8.831595E-002,8.831595E-002,
   **   ~~~   ** Supply-to-demand interface deck 1 mass flow rate check value iteration history trace: 8.831595E-002,8.831595E-002,8.831595E-002,8.831595E-002,8.831595E-002,8.831595E-002,8.831595E-002,8.831595E-002,8.831595E-002,8.831595E-002,
   **   ~~~   ** Air System Named = CENTRAL SYSTEM did not converge for energy
   **   ~~~   ** Check values should be zero. Most Recent values listed first.
   **   ~~~   ** Demand-to-Supply interface energy check value iteration history trace: 1750.067051,1750.067050,1750.067050,1750.067050,1750.067050,1750.067050,1750.067050,1750.067050,1750.067050,1750.067049,
   **   ~~~   ** Supply-to-demand interface deck 1 energy check value iteration history trace: 2756.783320,2756.783320,2756.783320,2756.783320,2756.783320,2756.783319,2756.783319,2756.783319,2756.783319,2756.783319,
   ** Warning ** SimHVAC: Maximum iterations (20) exceeded for all HVAC loops, at ANNUAL, 02/18 12:00 - 12:15
   **   ~~~   ** The solution for one or more of the Air Loop HVAC systems did not appear to converge
   **   ~~~   ** Air System Named = CENTRAL SYSTEM did not converge for mass flow rate
   **   ~~~   ** Check values should be zero. Most Recent values listed first.
   **   ~~~   ** Demand-to-Supply interface mass flow rate check value iteration history trace: 6.544239E-002,6.544239E-002,6.544239E-002,6.544239E-002,6.544239E-002,6.544239E-002,6.544239E-002,6.544239E-002,6.544239E-002,6.544239E-002,
   **   ~~~   ** Supply-to-demand interface deck 1 mass flow rate check value iteration history trace: 6.544239E-002,6.544239E-002,6.544239E-002,6.544239E-002,6.544239E-002,6.544239E-002,6.544239E-002,6.544239E-002,6.544239E-002,6.544239E-002,
   **   ~~~   ** Air System Named = CENTRAL SYSTEM did not converge for energy
   **   ~~~   ** Check values should be zero. Most Recent values listed first.
   **   ~~~   ** Demand-to-Supply interface energy check value iteration history trace: 1290.201313,1290.201313,1290.201313,1290.201313,1290.201313,1290.201313,1290.201313,1290.201312,1290.201312,1290.201312,
   **   ~~~   ** Supply-to-demand interface deck 1 energy check value iteration history trace: 2097.822530,2097.822530,2097.822530,2097.822530,2097.822530,2097.822529,2097.822529,2097.822529,2097.822529,2097.822529,
   ** Warning ** SimHVAC: Maximum iterations (20) exceeded for all HVAC loops, at ANNUAL, 03/05 14:00 - 14:15
   **   ~~~   ** The solution for one or more of the Air Loop HVAC systems did not appear to converge
   **   ~~~   ** Air System Named = CENTRAL SYSTEM did not converge for mass flow rate
   **   ~~~   ** Check values should be zero. Most Recent values listed first.
   **   ~~~   ** Demand-to-Supply interface mass flow rate check value iteration history trace: 7.011373E-002,7.011373E-002,7.011373E-002,7.011373E-002,7.011373E-002,7.011373E-002,7.011373E-002,7.011373E-002,7.011373E-002,7.011373E-002,
   **   ~~~   ** Supply-to-demand interface deck 1 mass flow rate check value iteration history trace: 7.011373E-002,7.011373E-002,7.011373E-002,7.011373E-002,7.011373E-002,7.011373E-002,7.011373E-002,7.011373E-002,7.011373E-002,7.011373E-002,
   **   ~~~   ** Air System Named = CENTRAL SYSTEM did not converge for energy
   **   ~~~   ** Check values should be zero. Most Recent values listed first.
   **   ~~~   ** Demand-to-Supply interface energy check value iteration history trace: 1389.380584,1389.380584,1389.380584,1389.380584,1389.380584,1389.380584,1389.380584,1389.380584,1389.380584,1389.380584,
   **   ~~~   ** Supply-to-demand interface deck 1 energy check value iteration history trace: 2236.328726,2236.328726,2236.328726,2236.328726,2236.328725,2236.328725,2236.328725,2236.328725,2236.328725,2236.328725,
   ** Warning ** SimHVAC: Maximum iterations (20) exceeded for all HVAC loops, at ANNUAL, 03/19 12:42 - 12:45
   **   ~~~   ** The solution for one or more of the Air Loop HVAC systems did not appear to converge
   **   ~~~   ** Air System Named = CENTRAL SYSTEM did not converge for mass flow rate
   **   ~~~   ** Check values should be zero. Most Recent values listed first.
   **   ~~~   ** Demand-to-Supply interface mass flow rate check value iteration history trace: 5.646336E-002,5.646336E-002,5.646336E-002,5.646336E-002,5.646336E-002,5.646336E-002,5.646336E-002,5.646336E-002,5.646336E-002,5.646336E-002,
   **   ~~~   ** Supply-to-demand interface deck 1 mass flow rate check value iteration history trace: 5.646336E-002,5.646336E-002,5.646336E-002,5.646336E-002,5.646336E-002,5.646336E-002,5.646336E-002,5.646336E-002,5.646336E-002,5.646336E-002,
   **   ~~~   ** Air System Named = CENTRAL SYSTEM did not converge for energy
   **   ~~~   ** Check values should be zero. Most Recent values listed first.
   **   ~~~   ** Demand-to-Supply interface energy check value iteration history trace: 1115.073227,1115.073227,1115.073227,1115.073227,1115.073227,1115.073227,1115.073227,1115.073227,1115.073227,1115.073227,
   **   ~~~   ** Supply-to-demand interface deck 1 energy check value iteration history trace: 2067.825639,2067.825639,2067.825639,2067.825639,2067.825639,2067.825639,2067.825639,2067.825639,2067.825639,2067.825639,
   ** Warning ** SimHVAC: Maximum iterations (20) exceeded for all HVAC loops, at ANNUAL, 04/22 07:03 - 07:05
   **   ~~~   ** The solution for one or more of the Air Loop HVAC systems did not appear to converge
   **   ~~~   ** Air System Named = CENTRAL SYSTEM did not converge for mass flow rate
   **   ~~~   ** Check values should be zero. Most Recent values listed first.
   **   ~~~   ** Demand-to-Supply interface mass flow rate check value iteration history trace: 7.508917E-002,7.508917E-002,7.508917E-002,7.508917E-002,7.508917E-002,7.508917E-002,7.508917E-002,7.508917E-002,7.508917E-002,7.508917E-002,
   **   ~~~   ** Supply-to-demand interface deck 1 mass flow rate check value iteration history trace: 7.508917E-002,7.508917E-002,7.508917E-002,7.508917E-002,7.508917E-002,7.508917E-002,7.508917E-002,7.508917E-002,7.508917E-002,7.508917E-002,
   **   ~~~   ** Air System Named = CENTRAL SYSTEM did not converge for energy
   **   ~~~   ** Check values should be zero. Most Recent values listed first.
   **   ~~~   ** Demand-to-Supply interface energy check value iteration history trace: 1488.062097,1488.062097,1488.062097,1488.062097,1488.062097,1488.062097,1488.062097,1488.062096,1488.062096,1488.062096,
   **   ~~~   ** Supply-to-demand interface deck 1 energy check value iteration history trace: 2389.604799,2389.604799,2389.604799,2389.604798,2389.604798,2389.604798,2389.604798,2389.604798,2389.604798,2389.604798,
   ** Warning ** SimHVAC: Maximum iterations (20) exceeded for all HVAC loops, at ANNUAL, 04/25 07:00 - 07:05
   **   ~~~   ** The solution for one or more of the Air Loop HVAC systems did not appear to converge
   **   ~~~   ** Air System Named = CENTRAL SYSTEM did not converge for mass flow rate
   **   ~~~   ** Check values should be zero. Most Recent values listed first.
   **   ~~~   ** Demand-to-Supply interface mass flow rate check value iteration history trace: 7.844865E-002,7.844865E-002,7.844865E-002,7.844865E-002,7.844865E-002,7.844865E-002,7.844865E-002,7.844865E-002,7.844865E-002,7.844865E-002,
   **   ~~~   ** Supply-to-demand interface deck 1 mass flow rate check value iteration history trace: 7.844865E-002,7.844865E-002,7.844865E-002,7.844865E-002,7.844865E-002,7.844865E-002,7.844865E-002,7.844865E-002,7.844865E-002,7.844865E-002,
   **   ~~~   ** Air System Named = CENTRAL SYSTEM did not converge for energy
   **   ~~~   ** Check values should be zero. Most Recent values listed first.
   **   ~~~   ** Demand-to-Supply interface energy check value iteration history trace: 1554.323461,1554.323461,1554.323461,1554.323461,1554.323461,1554.323461,1554.323461,1554.323461,1554.323461,1554.323461,
   **   ~~~   ** Supply-to-demand interface deck 1 energy check value iteration history trace: 2595.144845,2595.144845,2595.144845,2595.144845,2595.144845,2595.144845,2595.144845,2595.144844,2595.144844,2595.144844,
   ** Warning ** SimHVAC: Maximum iterations (20) exceeded for all HVAC loops, at ANNUAL, 04/28 22:15 - 22:20
   **   ~~~   ** The solution for one or more of the Air Loop HVAC systems did not appear to converge
   **   ~~~   ** Air System Named = CENTRAL SYSTEM did not converge for mass flow rate
   **   ~~~   ** Check values should be zero. Most Recent values listed first.
   **   ~~~   ** Demand-to-Supply interface mass flow rate check value iteration history trace: 4.764990E-002,4.764990E-002,4.764990E-002,4.764990E-002,4.764990E-002,4.764990E-002,4.764990E-002,4.764990E-002,4.764990E-002,4.764990E-002,
   **   ~~~   ** Supply-to-demand interface deck 1 mass flow rate check value iteration history trace: 4.764990E-002,4.764990E-002,4.764990E-002,4.764990E-002,4.764990E-002,4.764990E-002,4.764990E-002,4.764990E-002,4.764990E-002,4.764990E-002,
   **   ~~~   ** Air System Named = CENTRAL SYSTEM did not converge for energy
   **   ~~~   ** Check values should be zero. Most Recent values listed first.
   **   ~~~   ** Demand-to-Supply interface energy check value iteration history trace: 913.164395,913.164395,913.164395,913.164395,913.164394,913.164394,913.164394,913.164394,913.164394,913.164394,
   **   ~~~   ** Supply-to-demand interface deck 1 energy check value iteration history trace: 1710.770144,1710.770144,1710.770144,1710.770144,1710.770144,1710.770144,1710.770144,1710.770144,1710.770144,1710.770143,
   ** Warning ** SimHVAC: Maximum iterations (20) exceeded for all HVAC loops, at ANNUAL, 05/03 06:30 - 06:45
   **   ~~~   ** The solution for one or more of the Air Loop HVAC systems did not appear to converge
   **   ~~~   ** Air System Named = CENTRAL SYSTEM did not converge for mass flow rate
   **   ~~~   ** Check values should be zero. Most Recent values listed first.
   **   ~~~   ** Demand-to-Supply interface mass flow rate check value iteration history trace: 5.508731E-002,5.508731E-002,5.508731E-002,5.508731E-002,5.508731E-002,5.508731E-002,5.508731E-002,5.508731E-002,5.508731E-002,5.508731E-002,
   **   ~~~   ** Supply-to-demand interface deck 1 mass flow rate check value iteration history trace: 5.508731E-002,5.508731E-002,5.508731E-002,5.508731E-002,5.508731E-002,5.508731E-002,5.508731E-002,5.508731E-002,5.508731E-002,5.508731E-002,
   **   ~~~   ** Air System Named = CENTRAL SYSTEM did not converge for energy
   **   ~~~   ** Check values should be zero. Most Recent values listed first.
   **   ~~~   ** Demand-to-Supply interface energy check value iteration history trace: 1091.511020,1091.511020,1091.511020,1091.511020,1091.511020,1091.511020,1091.511019,1091.511019,1091.511019,1091.511019,
   **   ~~~   ** Supply-to-demand interface deck 1 energy check value iteration history trace: 2006.494347,2006.494347,2006.494347,2006.494347,2006.494347,2006.494347,2006.494347,2006.494346,2006.494346,2006.494346,
   ** Warning ** SimHVAC: Maximum iterations (20) exceeded for all HVAC loops, at ANNUAL, 05/15 08:45 - 09:00
   **   ~~~   ** The solution for one or more of the Air Loop HVAC systems did not appear to converge
   **   ~~~   ** Air System Named = CENTRAL SYSTEM did not converge for mass flow rate
   **   ~~~   ** Check values should be zero. Most Recent values listed first.
   **   ~~~   ** Demand-to-Supply interface mass flow rate check value iteration history trace: 7.897679E-002,7.897679E-002,7.897679E-002,7.897679E-002,7.897679E-002,7.897679E-002,7.897679E-002,7.897679E-002,7.897679E-002,7.897679E-002,
   **   ~~~   ** Supply-to-demand interface deck 1 mass flow rate check value iteration history trace: 7.897679E-002,7.897679E-002,7.897679E-002,7.897679E-002,7.897679E-002,7.897679E-002,7.897679E-002,7.897679E-002,7.897679E-002,7.897679E-002,
   **   ~~~   ** Air System Named = CENTRAL SYSTEM did not converge for energy
   **   ~~~   ** Check values should be zero. Most Recent values listed first.
   **   ~~~   ** Demand-to-Supply interface energy check value iteration history trace: 1565.048534,1565.048534,1565.048534,1565.048534,1565.048534,1565.048534,1565.048534,1565.048534,1565.048534,1565.048533,
   **   ~~~   ** Supply-to-demand interface deck 1 energy check value iteration history trace: 2642.691392,2642.691392,2642.691392,2642.691392,2642.691392,2642.691392,2642.691392,2642.691391,2642.691391,2642.691391,
   ** Warning ** SimHVAC: Maximum iterations (20) exceeded for all HVAC loops, at ANNUAL, 05/15 09:00 - 09:15
   **   ~~~   ** The solution for one or more of the Air Loop HVAC systems did not appear to converge
   **   ~~~   ** Air System Named = CENTRAL SYSTEM did not converge for mass flow rate
   **   ~~~   ** Check values should be zero. Most Recent values listed first.
   **   ~~~   ** Demand-to-Supply interface mass flow rate check value iteration history trace: 6.575235E-002,6.575235E-002,6.575235E-002,6.575235E-002,6.575235E-002,6.575235E-002,6.575235E-002,6.575235E-002,6.575235E-002,6.575235E-002,
   **   ~~~   ** Supply-to-demand interface deck 1 mass flow rate check value iteration history trace: 6.575235E-002,6.575235E-002,6.575235E-002,6.575235E-002,6.575235E-002,6.575235E-002,6.575235E-002,6.575235E-002,6.575235E-002,6.575235E-002,
   **   ~~~   ** Air System Named = CENTRAL SYSTEM did not converge for energy
   **   ~~~   ** Check values should be zero. Most Recent values listed first.
   **   ~~~   ** Demand-to-Supply interface energy check value iteration history trace: 1302.150703,1302.150703,1302.150703,1302.150703,1302.150703,1302.150703,1302.150703,1302.150703,1302.150703,1302.150703,
   **   ~~~   ** Supply-to-demand interface deck 1 energy check value iteration history trace: 2364.805458,2364.805458,2364.805458,2364.805458,2364.805458,2364.805458,2364.805458,2364.805458,2364.805458,2364.805458,
   ** Warning ** SimHVAC: Maximum iterations (20) exceeded for all HVAC loops, at ANNUAL, 06/06 23:30 - 23:45
   **   ~~~   ** The solution for one or more of the Air Loop HVAC systems did not appear to converge
   **   ~~~   ** Air System Named = CENTRAL SYSTEM did not converge for mass flow rate
   **   ~~~   ** Check values should be zero. Most Recent values listed first.
   **   ~~~   ** Demand-to-Supply interface mass flow rate check value iteration history trace: 1.417818E-002,1.417818E-002,1.417818E-002,1.417818E-002,1.417818E-002,1.417818E-002,1.417818E-002,1.417818E-002,1.417818E-002,1.417818E-002,
   **   ~~~   ** Supply-to-demand interface deck 1 mass flow rate check value iteration history trace: 1.417818E-002,1.417818E-002,1.417818E-002,1.417818E-002,1.417818E-002,1.417818E-002,1.417818E-002,1.417818E-002,1.417818E-002,1.417818E-002,
   **   ~~~   ** Air System Named = CENTRAL SYSTEM did not converge for energy
   **   ~~~   ** Check values should be zero. Most Recent values listed first.
   **   ~~~   ** Demand-to-Supply interface energy check value iteration history trace: 343.124841,343.124841,343.124841,343.124841,343.124841,343.124841,343.124841,343.124841,343.124841,343.124841,
   **   ~~~   ** Supply-to-demand interface deck 1 energy check value iteration history trace: 129.211076,129.211076,129.211076,129.211076,129.211076,129.211076,129.211076,129.211076,129.211076,129.211076,
   ** Warning ** SimHVAC: Maximum iterations (20) exceeded for all HVAC loops, at ANNUAL, 06/08 08:04 - 08:08
   **   ~~~   ** The solution for one or more of the Air Loop HVAC systems did not appear to converge
   **   ~~~   ** Air System Named = CENTRAL SYSTEM did not converge for mass flow rate
   **   ~~~   ** Check values should be zero. Most Recent values listed first.
   **   ~~~   ** Demand-to-Supply interface mass flow rate check value iteration history trace: 0.106393,0.106393,0.106393,0.106393,0.106393,0.106393,0.106393,0.106393,0.106393,0.106393,
   **   ~~~   ** Supply-to-demand interface deck 1 mass flow rate check value iteration history trace: 0.106393,0.106393,0.106393,0.106393,0.106393,0.106393,0.106393,0.106393,0.106393,0.106393,
   **   ~~~   ** Air System Named = CENTRAL SYSTEM did not converge for energy
   **   ~~~   ** Check values should be zero. Most Recent values listed first.
   **   ~~~   ** Demand-to-Supply interface energy check value iteration history trace: 2521.485103,2521.485104,2521.485104,2521.485105,2521.485106,2521.485106,2521.485107,2521.485107,2521.485108,2521.485109,
   **   ~~~   ** Supply-to-demand interface deck 1 energy check value iteration history trace: 1216.455794,1216.455794,1216.455795,1216.455795,1216.455795,1216.455796,1216.455796,1216.455796,1216.455797,1216.455797,
   ** Warning ** SimHVAC: Maximum iterations (20) exceeded for all HVAC loops, at ANNUAL, 06/08 08:30 - 08:45
   **   ~~~   ** The solution for one or more of the Air Loop HVAC systems did not appear to converge
   **   ~~~   ** Air System Named = CENTRAL SYSTEM did not converge for mass flow rate
   **   ~~~   ** Check values should be zero. Most Recent values listed first.
   **   ~~~   ** Demand-to-Supply interface mass flow rate check value iteration history trace: 0.134873,0.134873,0.134873,0.134873,0.134873,0.134873,0.134873,0.134873,0.134873,0.134873,
   **   ~~~   ** Supply-to-demand interface deck 1 mass flow rate check value iteration history trace: 0.134873,0.134873,0.134873,0.134873,0.134873,0.134873,0.134873,0.134873,0.134873,0.134873,
   **   ~~~   ** Air System Named = CENTRAL SYSTEM did not converge for energy
   **   ~~~   ** Check values should be zero. Most Recent values listed first.
   **   ~~~   ** Demand-to-Supply interface energy check value iteration history trace: 3239.897432,3239.897433,3239.897433,3239.897434,3239.897435,3239.897436,3239.897437,3239.897438,3239.897439,3239.897440,
   **   ~~~   ** Supply-to-demand interface deck 1 energy check value iteration history trace: 1565.994266,1565.994266,1565.994266,1565.994267,1565.994267,1565.994268,1565.994268,1565.994268,1565.994269,1565.994269,
   ** Warning ** SimHVAC: Maximum iterations (20) exceeded for all HVAC loops, at ANNUAL, 06/15 08:30 - 08:45
   **   ~~~   ** The solution for one or more of the Air Loop HVAC systems did not appear to converge
   **   ~~~   ** Air System Named = CENTRAL SYSTEM did not converge for mass flow rate
   **   ~~~   ** Check values should be zero. Most Recent values listed first.
   **   ~~~   ** Demand-to-Supply interface mass flow rate check value iteration history trace: 9.219887E-002,9.219887E-002,9.219887E-002,9.219887E-002,9.219887E-002,9.219887E-002,9.219887E-002,9.219887E-002,9.219887E-002,9.219887E-002,
   **   ~~~   ** Supply-to-demand interface deck 1 mass flow rate check value iteration history trace: 9.219887E-002,9.219887E-002,9.219887E-002,9.219887E-002,9.219887E-002,9.219887E-002,9.219887E-002,9.219887E-002,9.219887E-002,9.219887E-002,
   **   ~~~   ** Air System Named = CENTRAL SYSTEM did not converge for energy
   **   ~~~   ** Check values should be zero. Most Recent values listed first.
   **   ~~~   ** Demand-to-Supply interface energy check value iteration history trace: 2191.119690,2191.119690,2191.119690,2191.119690,2191.119690,2191.119690,2191.119691,2191.119691,2191.119691,2191.119691,
   **   ~~~   ** Supply-to-demand interface deck 1 energy check value iteration history trace: 974.865065,974.865065,974.865065,974.865065,974.865065,974.865065,974.865065,974.865065,974.865065,974.865065,
   ************* Simulation Error Summary *************
   ** Warning ** The following Report Variables were requested but not generated -- check.rdd file
   **   ~~~   ** Either the IDF did not contain these elements, the variable name is misspelled,
   **   ~~~   ** or the requested variable is an advanced output which requires Output : Diagnostics, DisplayAdvancedReportVariables;
   ************* Key=*, VarName=BASEBOARD TOTAL HEATING ENERGY, Frequency=
   ************* Key=*, VarName=WATER HEATER NATURALGAS ENERGY, Frequency=
   ************* Key=*, VarName=COOLING COIL TOTAL HEATING ENERGY, Frequency=
   ************* There are 34 unused schedules in input.
   ************* There are 388 unused week schedules in input.
   ************* There are 396 unused day schedules in input.
   ************* Use Output:Diagnostics,DisplayUnusedSchedules; to see them.
   *************
   ************* ===== Recurring Error Summary =====
   ************* The following recurring error messages occurred.
   *************
   *************  ** Warning ** "TOTAL HOT WATER LOAD" - Target water temperature should be less than or equal to the hot water temperature error continues...
   *************  **   ~~~   **   This error occurred 100269 total times;
   *************  **   ~~~   **   during Warmup 0 times;
   *************  **   ~~~   **   during Sizing 0 times.
   *************  **   ~~~   **   Max=13.725837  Min=1.726189E-004
   *************
   *************  ** Warning ** SimHVAC: Exceeding Maximum iterations for all HVAC loops, during ANNUAL continues
   *************  **   ~~~   **   This error occurred 8 total times;
   *************  **   ~~~   **   during Warmup 0 times;
   *************  **   ~~~   **   during Sizing 0 times.
   *************
   *************
   ************* ===== Final Error Summary =====
   ************* The following error categories occurred.  Consider correcting or noting.
   ************* Nominally Unused Constructions
   ************* ..The nominally unused constructions warning is provided to alert you to potential conditions that can cause
   ************* ..extra time during simulation. Each construction is calculated by the algorithm indicated in the HeatBalanceAlgorithm
   ************* ..object. You may remove the constructions indicated (when you use the DisplayExtraWarnings option).
   *************
   ************* EnergyPlus Warmup Error Summary. During Warmup: 1 Warning; 0 Severe Errors.
   ************* EnergyPlus Sizing Error Summary. During Sizing: 4 Warning; 0 Severe Errors.
   ************* EnergyPlus Completed Successfully-- 100308 Warning; 0 Severe Errors; Elapsed Time=00hr 01min 28.06sec
