Program Version,EnergyPlus, Version 22.2.0-c249759bad, YMD=2023.09.01 18:55,
   ************* Beginning Zone Sizing Calculations
   ** Warning ** ProcessScheduleInput: Schedule:Constant="ALWAYS ON DISCRETE", Schedule Type Limits Name="ONOFF" not found -- will not be validated
   ** Warning ** Foundation:Kiva="KIVA FOUNDATION", no Interior Horizontal Insulation Material Name defined
   **   ~~~   ** Interior Horizontal Insulation Depth will not be used.
   ** Warning ** CheckUsedConstructions: There are 15 nominally unused constructions in input.
   **   ~~~   ** Each Unused construction is shown.
   ************* Construction=INTERIOR FLOOR
   ************* Construction=INTERIOR WINDOW
   ************* Construction=EXTERIOR DOOR
   ************* Construction=INTERIOR DOOR
   ************* Construction=GABLE CONSTRUCTION
   ************* Construction=CRAWL_FLOOR
   ************* Construction=INSULATED PIPE
   ************* Construction=PLAIN PIPE
   ************* Construction=TDD PIPE
   ************* Construction=TDD DOME
   ************* Construction=TDD DIFFUSER
   ************* Construction=CRAWL WALL
   ************* Construction=CEILING-FLOOR-LAYER
   ************* Construction=SLAB CONSTRUCTION W FULL R10 INSULATION
   ************* Construction=SLAB CONSTRUCTION W FULL R5 INSULATION
   ** Warning ** GetDXCoils: Coil:Heating:DX:SingleSpeed="DX_HEATING_COIL" curve values
   **   ~~~   ** ... Defrost Energy Input Ratio Function of Temperature Curve Name = DEFROSTEIR output is not equal to 1.0 (+ or - 10%) at rated conditions.
   **   ~~~   ** ... Curve output at rated conditions = 0.152
   ************* Beginning System Sizing Calculations
   ************* Beginning Plant Sizing Calculations
   ** Warning ** Coil:WaterHeating:AirToWaterHeatPump:Wrapped "HEAT PUMP WATER HEATER EVAPORATOR": Rated air volume flow rate per watt of rated total water heating capacity is out of range
   **   ~~~   ** Min Rated Vol Flow Per Watt=[4.027E-005], Rated Vol Flow Per Watt=[1.510E-004], Max Rated Vol Flow Per Watt=[8.056E-005]. See Input-Output Reference Manual for valid range.
   ************* SizeFan: : Potential issue with equipment sizing for Fan:OnOff HEAT PUMP WATER HEATER FAN
   **   ~~~   ** User-Specified Maximum Flow Rate [m3/s] = 0.22653
   **   ~~~   ** differs from Design Size Maximum Flow Rate [m3/s] = 7.55250E-002
   **   ~~~   ** This may, or may not, indicate mismatched component sizes.
   **   ~~~   ** Verify that the value entered is intended and is consistent with other components.
   ** Warning ** Water heater = WATER HEATER TANK:  Recovery Efficiency and Energy Factor could not be calculated during the test for standard ratings
   **   ~~~   ** Setpoint was never recovered and/or heater never turned on
   ** Warning ** Check input. Pump nominal power or motor efficiency is set to 0, for pump=MAINS PRESSURE
   ** Warning ** Output:Meter: invalid Key Name="ELECTRIC_RANGE:INTERIOREQUIPMENT:ELECTRICITY" - not found.
   ** Warning ** Output:Meter: invalid Key Name="ELECTRIC_DRYER:INTERIOREQUIPMENT:ELECTRICITY" - not found.
   ** Warning ** Output:Meter: invalid Key Name="HEATRECOVERY:ELECTRICITY" - not found.
   ** Warning ** Output:Meter: invalid Key Name="HEATING:NATURALGAS" - not found.
   ** Warning ** Output:Meter: invalid Key Name="WATERSYSTEMS:NATURALGAS" - not found.
   ** Warning ** Output:Meter: invalid Key Name="PROPANE:FACILITY" - not found.
   ** Warning ** Output:Meter: invalid Key Name="HEATING:PROPANE" - not found.
   ************* Testing Individual Branch Integrity
   ************* All Branches passed integrity testing
   ************* Testing Individual Supply Air Path Integrity
   ************* All Supply Air Paths passed integrity testing
   ************* Testing Individual Return Air Path Integrity
   ************* All Return Air Paths passed integrity testing
   ************* No node connection errors were found.
   ************* Beginning Simulation
   ** Warning ** AirflowNetwork::Solver::validate_distribution: Heat pump water heater is simulated along with an AirflowNetwork but is not included in the AirflowNetwork.
   ** Warning ** CalcEquipmentFlowRates: "TOTAL HOT WATER LOAD" - Target water temperature is greater than the hot water temperature by (8.36E-002 C)
   **   ~~~   **  Environment=EXTREME_WINTER, at Simulation time=02/17 03:45 - 04:00
   **   ~~~   ** ...target water temperature     = 53.33 C
   **   ~~~   ** ...hot water temperature        = 53.25 C
   **   ~~~   ** ...Target water temperature should be less than or equal to the hot water temperature. Verify temperature setpoints and schedules.
   ** Warning ** SimHVAC: Maximum iterations (20) exceeded for all HVAC loops, at ANNUAL, 02/26 15:08 - 15:15
   **   ~~~   ** The solution for one or more of the Air Loop HVAC systems did not appear to converge
   **   ~~~   ** Air System Named = CENTRAL SYSTEM did not converge for mass flow rate
   **   ~~~   ** Check values should be zero. Most Recent values listed first.
   **   ~~~   ** Demand-to-Supply interface mass flow rate check value iteration history trace: 9.442524E-002,9.442524E-002,9.442524E-002,9.442524E-002,9.442524E-002,9.442524E-002,9.442524E-002,9.442524E-002,9.442524E-002,9.442524E-002,
   **   ~~~   ** Supply-to-demand interface deck 1 mass flow rate check value iteration history trace: 9.442524E-002,9.442524E-002,9.442524E-002,9.442524E-002,9.442524E-002,9.442524E-002,9.442524E-002,9.442524E-002,9.442524E-002,9.442524E-002,
   **   ~~~   ** Air System Named = CENTRAL SYSTEM did not converge for energy
   **   ~~~   ** Check values should be zero. Most Recent values listed first.
   **   ~~~   ** Demand-to-Supply interface energy check value iteration history trace: 1859.122985,1859.122985,1859.122985,1859.122985,1859.122985,1859.122985,1859.122985,1859.122984,1859.122984,1859.122984,
   **   ~~~   ** Supply-to-demand interface deck 1 energy check value iteration history trace: 2910.485644,2910.485644,2910.485644,2910.485644,2910.485644,2910.485643,2910.485643,2910.485643,2910.485643,2910.485643,
   ** Warning ** SimHVAC: Maximum iterations (20) exceeded for all HVAC loops, at ANNUAL, 03/12 10:48 - 10:51
   **   ~~~   ** The solution for one or more of the Air Loop HVAC systems did not appear to converge
   **   ~~~   ** Air System Named = CENTRAL SYSTEM did not converge for mass flow rate
   **   ~~~   ** Check values should be zero. Most Recent values listed first.
   **   ~~~   ** Demand-to-Supply interface mass flow rate check value iteration history trace: 6.298411E-002,6.298411E-002,6.298411E-002,6.298411E-002,6.298411E-002,6.298411E-002,6.298411E-002,6.298411E-002,6.298411E-002,6.298411E-002,
   **   ~~~   ** Supply-to-demand interface deck 1 mass flow rate check value iteration history trace: 6.298411E-002,6.298411E-002,6.298411E-002,6.298411E-002,6.298411E-002,6.298411E-002,6.298411E-002,6.298411E-002,6.298411E-002,6.298411E-002,
   **   ~~~   ** Air System Named = CENTRAL SYSTEM did not converge for energy
   **   ~~~   ** Check values should be zero. Most Recent values listed first.
   **   ~~~   ** Demand-to-Supply interface energy check value iteration history trace: 1248.653236,1248.653236,1248.653235,1248.653235,1248.653235,1248.653235,1248.653235,1248.653235,1248.653235,1248.653235,
   **   ~~~   ** Supply-to-demand interface deck 1 energy check value iteration history trace: 2034.820698,2034.820698,2034.820698,2034.820698,2034.820698,2034.820698,2034.820698,2034.820697,2034.820697,2034.820697,
   ** Warning ** SimHVAC: Maximum iterations (20) exceeded for all HVAC loops, at ANNUAL, 04/02 08:00 - 08:15
   **   ~~~   ** The solution for one or more of the Air Loop HVAC systems did not appear to converge
   **   ~~~   ** Air System Named = CENTRAL SYSTEM did not converge for mass flow rate
   **   ~~~   ** Check values should be zero. Most Recent values listed first.
   **   ~~~   ** Demand-to-Supply interface mass flow rate check value iteration history trace: 5.368230E-002,5.368230E-002,5.368230E-002,5.368230E-002,5.368230E-002,5.368230E-002,5.368230E-002,5.368230E-002,5.368230E-002,5.368230E-002,
   **   ~~~   ** Supply-to-demand interface deck 1 mass flow rate check value iteration history trace: 5.368230E-002,5.368230E-002,5.368230E-002,5.368230E-002,5.368230E-002,5.368230E-002,5.368230E-002,5.368230E-002,5.368230E-002,5.368230E-002,
   **   ~~~   ** Air System Named = CENTRAL SYSTEM did not converge for energy
   **   ~~~   ** Check values should be zero. Most Recent values listed first.
   **   ~~~   ** Demand-to-Supply interface energy check value iteration history trace: 1052.933988,1052.933988,1052.933988,1052.933988,1052.933988,1052.933988,1052.933988,1052.933988,1052.933988,1052.933988,
   **   ~~~   ** Supply-to-demand interface deck 1 energy check value iteration history trace: 1919.560629,1919.560629,1919.560629,1919.560629,1919.560628,1919.560628,1919.560628,1919.560628,1919.560628,1919.560628,
   ** Warning ** SimHVAC: Maximum iterations (20) exceeded for all HVAC loops, at ANNUAL, 04/09 08:24 - 08:26
   **   ~~~   ** The solution for one or more of the Air Loop HVAC systems did not appear to converge
   **   ~~~   ** Air System Named = CENTRAL SYSTEM did not converge for mass flow rate
   **   ~~~   ** Check values should be zero. Most Recent values listed first.
   **   ~~~   ** Demand-to-Supply interface mass flow rate check value iteration history trace: 4.463219E-002,4.463219E-002,4.463219E-002,4.463219E-002,4.463219E-002,4.463219E-002,4.463219E-002,4.463219E-002,4.463219E-002,4.463219E-002,
   **   ~~~   ** Supply-to-demand interface deck 1 mass flow rate check value iteration history trace: 4.463219E-002,4.463219E-002,4.463219E-002,4.463219E-002,4.463219E-002,4.463219E-002,4.463219E-002,4.463219E-002,4.463219E-002,4.463219E-002,
   **   ~~~   ** Air System Named = CENTRAL SYSTEM did not converge for energy
   **   ~~~   ** Check values should be zero. Most Recent values listed first.
   **   ~~~   ** Demand-to-Supply interface energy check value iteration history trace: 883.466743,883.466743,883.466743,883.466743,883.466743,883.466743,883.466743,883.466743,883.466743,883.466743,
   **   ~~~   ** Supply-to-demand interface deck 1 energy check value iteration history trace: 1662.623571,1662.623571,1662.623570,1662.623570,1662.623570,1662.623570,1662.623570,1662.623570,1662.623570,1662.623570,
   ** Warning ** SimHVAC: Maximum iterations (20) exceeded for all HVAC loops, at ANNUAL, 05/12 08:53 - 08:56
   **   ~~~   ** The solution for one or more of the Air Loop HVAC systems did not appear to converge
   **   ~~~   ** Air System Named = CENTRAL SYSTEM did not converge for mass flow rate
   **   ~~~   ** Check values should be zero. Most Recent values listed first.
   **   ~~~   ** Demand-to-Supply interface mass flow rate check value iteration history trace: 5.477265E-002,5.477265E-002,5.477265E-002,5.477265E-002,5.477265E-002,5.477265E-002,5.477265E-002,5.477265E-002,5.477265E-002,5.477265E-002,
   **   ~~~   ** Supply-to-demand interface deck 1 mass flow rate check value iteration history trace: 5.477265E-002,5.477265E-002,5.477265E-002,5.477265E-002,5.477265E-002,5.477265E-002,5.477265E-002,5.477265E-002,5.477265E-002,5.477265E-002,
   **   ~~~   ** Air System Named = CENTRAL SYSTEM did not converge for energy
   **   ~~~   ** Check values should be zero. Most Recent values listed first.
   **   ~~~   ** Demand-to-Supply interface energy check value iteration history trace: 1082.603763,1082.603762,1082.603762,1082.603762,1082.603762,1082.603762,1082.603762,1082.603761,1082.603761,1082.603761,
   **   ~~~   ** Supply-to-demand interface deck 1 energy check value iteration history trace: 1983.355111,1983.355111,1983.355111,1983.355110,1983.355110,1983.355110,1983.355109,1983.355109,1983.355109,1983.355109,
   **   ~~~   ** Node named ZONE INLET NODE shows oscillating temperatures across iterations with a repeated value of 36.036130
   **   ~~~   ** Node named ZONE INLET NODE temperature [C] iteration history trace (most recent first): 36.036130,36.036130,36.036130,36.036130,36.036129,36.036129,36.036129,36.036129,36.036128,36.036128,
   ** Warning ** SimHVAC: Maximum iterations (20) exceeded for all HVAC loops, at ANNUAL, 10/19 08:11 - 08:15
   **   ~~~   ** The solution for one or more of the Air Loop HVAC systems did not appear to converge
   **   ~~~   ** Air System Named = CENTRAL SYSTEM did not converge for mass flow rate
   **   ~~~   ** Check values should be zero. Most Recent values listed first.
   **   ~~~   ** Demand-to-Supply interface mass flow rate check value iteration history trace: 5.611976E-002,5.611976E-002,5.611976E-002,5.611976E-002,5.611976E-002,5.611976E-002,5.611976E-002,5.611976E-002,5.611976E-002,5.611976E-002,
   **   ~~~   ** Supply-to-demand interface deck 1 mass flow rate check value iteration history trace: 5.611976E-002,5.611976E-002,5.611976E-002,5.611976E-002,5.611976E-002,5.611976E-002,5.611976E-002,5.611976E-002,5.611976E-002,5.611976E-002,
   **   ~~~   ** Air System Named = CENTRAL SYSTEM did not converge for energy
   **   ~~~   ** Check values should be zero. Most Recent values listed first.
   **   ~~~   ** Demand-to-Supply interface energy check value iteration history trace: 1104.357855,1104.357855,1104.357855,1104.357855,1104.357855,1104.357855,1104.357855,1104.357855,1104.357855,1104.357855,
   **   ~~~   ** Supply-to-demand interface deck 1 energy check value iteration history trace: 2027.401770,2027.401770,2027.401770,2027.401770,2027.401769,2027.401769,2027.401769,2027.401769,2027.401769,2027.401769,
   ** Warning ** SimHVAC: Maximum iterations (20) exceeded for all HVAC loops, at ANNUAL, 10/29 11:40 - 11:45
   **   ~~~   ** The solution for one or more of the Air Loop HVAC systems did not appear to converge
   **   ~~~   ** Air System Named = CENTRAL SYSTEM did not converge for mass flow rate
   **   ~~~   ** Check values should be zero. Most Recent values listed first.
   **   ~~~   ** Demand-to-Supply interface mass flow rate check value iteration history trace: 1.627019E-002,1.627019E-002,1.627019E-002,1.627019E-002,1.627019E-002,1.627019E-002,1.627019E-002,1.627019E-002,1.627019E-002,1.627019E-002,
   **   ~~~   ** Supply-to-demand interface deck 1 mass flow rate check value iteration history trace: 1.627019E-002,1.627019E-002,1.627019E-002,1.627019E-002,1.627019E-002,1.627019E-002,1.627019E-002,1.627019E-002,1.627019E-002,1.627019E-002,
   **   ~~~   ** Air System Named = CENTRAL SYSTEM did not converge for energy
   **   ~~~   ** Check values should be zero. Most Recent values listed first.
   **   ~~~   ** Demand-to-Supply interface energy check value iteration history trace: 381.843351,381.843351,381.843351,381.843351,381.843351,381.843351,381.843351,381.843352,381.843352,381.843352,
   **   ~~~   ** Supply-to-demand interface deck 1 energy check value iteration history trace: 159.743388,159.743388,159.743388,159.743388,159.743388,159.743388,159.743388,159.743388,159.743388,159.743388,
   ** Warning ** SimHVAC: Maximum iterations (20) exceeded for all HVAC loops, at ANNUAL, 11/27 13:30 - 13:38
   **   ~~~   ** The solution for one or more of the Air Loop HVAC systems did not appear to converge
   **   ~~~   ** Air System Named = CENTRAL SYSTEM did not converge for mass flow rate
   **   ~~~   ** Check values should be zero. Most Recent values listed first.
   **   ~~~   ** Demand-to-Supply interface mass flow rate check value iteration history trace: 4.590337E-002,4.590337E-002,4.590337E-002,4.590337E-002,4.590337E-002,4.590337E-002,4.590337E-002,4.590337E-002,4.590337E-002,4.590337E-002,
   **   ~~~   ** Supply-to-demand interface deck 1 mass flow rate check value iteration history trace: 4.590337E-002,4.590337E-002,4.590337E-002,4.590337E-002,4.590337E-002,4.590337E-002,4.590337E-002,4.590337E-002,4.590337E-002,4.590337E-002,
   **   ~~~   ** Air System Named = CENTRAL SYSTEM did not converge for energy
   **   ~~~   ** Check values should be zero. Most Recent values listed first.
   **   ~~~   ** Demand-to-Supply interface energy check value iteration history trace: 902.812211,902.812211,902.812211,902.812211,902.812211,902.812211,902.812211,902.812210,902.812210,902.812210,
   **   ~~~   ** Supply-to-demand interface deck 1 energy check value iteration history trace: 1585.415883,1585.415883,1585.415882,1585.415882,1585.415882,1585.415882,1585.415881,1585.415881,1585.415881,1585.415881,
   **   ~~~   ** Node named ZONE INLET NODE shows oscillating temperatures across iterations with a repeated value of 34.371627
   **   ~~~   ** Node named ZONE INLET NODE temperature [C] iteration history trace (most recent first): 34.371627,34.371627,34.371626,34.371626,34.371626,34.371626,34.371626,34.371625,34.371625,34.371625,
   ** Warning ** SimHVAC: Maximum iterations (20) exceeded for all HVAC loops, at ANNUAL, 12/26 16:15 - 16:20
   **   ~~~   ** The solution for one or more of the Air Loop HVAC systems did not appear to converge
   **   ~~~   ** Air System Named = CENTRAL SYSTEM did not converge for mass flow rate
   **   ~~~   ** Check values should be zero. Most Recent values listed first.
   **   ~~~   ** Demand-to-Supply interface mass flow rate check value iteration history trace: 5.438283E-002,5.438283E-002,5.438283E-002,5.438283E-002,5.438283E-002,5.438283E-002,5.438283E-002,5.438283E-002,5.438283E-002,5.438283E-002,
   **   ~~~   ** Supply-to-demand interface deck 1 mass flow rate check value iteration history trace: 5.438283E-002,5.438283E-002,5.438283E-002,5.438283E-002,5.438283E-002,5.438283E-002,5.438283E-002,5.438283E-002,5.438283E-002,5.438283E-002,
   **   ~~~   ** Air System Named = CENTRAL SYSTEM did not converge for energy
   **   ~~~   ** Check values should be zero. Most Recent values listed first.
   **   ~~~   ** Demand-to-Supply interface energy check value iteration history trace: 1070.072173,1070.072173,1070.072173,1070.072173,1070.072173,1070.072173,1070.072173,1070.072173,1070.072173,1070.072173,
   **   ~~~   ** Supply-to-demand interface deck 1 energy check value iteration history trace: 1916.567260,1916.567260,1916.567260,1916.567260,1916.567260,1916.567260,1916.567260,1916.567260,1916.567260,1916.567260,
   ************* Simulation Error Summary *************
   ** Warning ** The following Report Variables were requested but not generated -- check.rdd file
   **   ~~~   ** Either the IDF did not contain these elements, the variable name is misspelled,
   **   ~~~   ** or the requested variable is an advanced output which requires Output : Diagnostics, DisplayAdvancedReportVariables;
   ************* Key=*, VarName=BASEBOARD TOTAL HEATING ENERGY, Frequency=
   ************* Key=*, VarName=WATER HEATER NATURALGAS ENERGY, Frequency=
   ************* Key=*, VarName=COOLING COIL TOTAL HEATING ENERGY, Frequency=
   ************* There are 34 unused schedules in input.
   ************* There are 388 unused week schedules in input.
   ************* There are 396 unused day schedules in input.
   ************* Use Output:Diagnostics,DisplayUnusedSchedules; to see them.
   *************
   ************* ===== Recurring Error Summary =====
   ************* The following recurring error messages occurred.
   *************
   *************  ** Warning ** "TOTAL HOT WATER LOAD" - Target water temperature should be less than or equal to the hot water temperature error continues...
   *************  **   ~~~   **   This error occurred 55179 total times;
   *************  **   ~~~   **   during Warmup 0 times;
   *************  **   ~~~   **   during Sizing 0 times.
   *************  **   ~~~   **   Max=6.507184  Min=6.116518E-006
   *************
   *************
   ************* ===== Final Error Summary =====
   ************* The following error categories occurred.  Consider correcting or noting.
   ************* Nominally Unused Constructions
   ************* ..The nominally unused constructions warning is provided to alert you to potential conditions that can cause
   ************* ..extra time during simulation. Each construction is calculated by the algorithm indicated in the HeatBalanceAlgorithm
   ************* ..object. You may remove the constructions indicated (when you use the DisplayExtraWarnings option).
   *************
   ************* EnergyPlus Warmup Error Summary. During Warmup: 1 Warning; 0 Severe Errors.
   ************* EnergyPlus Sizing Error Summary. During Sizing: 4 Warning; 0 Severe Errors.
   ************* EnergyPlus Completed Successfully-- 55205 Warning; 0 Severe Errors; Elapsed Time=00hr 01min 29.05sec
