Program Version,EnergyPlus, Version 22.2.0-c249759bad, YMD=2023.09.01 19:45,
   ************* Beginning Zone Sizing Calculations
   ** Warning ** ProcessScheduleInput: Schedule:Constant="ALWAYS ON DISCRETE", Schedule Type Limits Name="ONOFF" not found -- will not be validated
   ** Warning ** Foundation:Kiva="KIVA FOUNDATION", no Interior Horizontal Insulation Material Name defined
   **   ~~~   ** Interior Horizontal Insulation Depth will not be used.
   ** Warning ** CheckUsedConstructions: There are 15 nominally unused constructions in input.
   **   ~~~   ** Each Unused construction is shown.
   ************* Construction=INTERIOR FLOOR
   ************* Construction=INTERIOR WINDOW
   ************* Construction=EXTERIOR DOOR
   ************* Construction=INTERIOR DOOR
   ************* Construction=GABLE CONSTRUCTION
   ************* Construction=CRAWL_FLOOR
   ************* Construction=INSULATED PIPE
   ************* Construction=PLAIN PIPE
   ************* Construction=TDD PIPE
   ************* Construction=TDD DOME
   ************* Construction=TDD DIFFUSER
   ************* Construction=CRAWL WALL
   ************* Construction=CEILING-FLOOR-LAYER
   ************* Construction=SLAB CONSTRUCTION W FULL R10 INSULATION
   ************* Construction=SLAB CONSTRUCTION W FULL R5 INSULATION
   ** Warning ** GetDXCoils: Coil:Heating:DX:SingleSpeed="DX_HEATING_COIL" curve values
   **   ~~~   ** ... Defrost Energy Input Ratio Function of Temperature Curve Name = DEFROSTEIR output is not equal to 1.0 (+ or - 10%) at rated conditions.
   **   ~~~   ** ... Curve output at rated conditions = 0.152
   ************* Beginning System Sizing Calculations
   ************* Beginning Plant Sizing Calculations
   ** Warning ** Coil:WaterHeating:AirToWaterHeatPump:Wrapped "HEAT PUMP WATER HEATER EVAPORATOR": Rated air volume flow rate per watt of rated total water heating capacity is out of range
   **   ~~~   ** Min Rated Vol Flow Per Watt=[4.027E-005], Rated Vol Flow Per Watt=[1.510E-004], Max Rated Vol Flow Per Watt=[8.056E-005]. See Input-Output Reference Manual for valid range.
   ************* SizeFan: : Potential issue with equipment sizing for Fan:OnOff HEAT PUMP WATER HEATER FAN
   **   ~~~   ** User-Specified Maximum Flow Rate [m3/s] = 0.22653
   **   ~~~   ** differs from Design Size Maximum Flow Rate [m3/s] = 7.55250E-002
   **   ~~~   ** This may, or may not, indicate mismatched component sizes.
   **   ~~~   ** Verify that the value entered is intended and is consistent with other components.
   ** Warning ** Water heater = WATER HEATER TANK:  Recovery Efficiency and Energy Factor could not be calculated during the test for standard ratings
   **   ~~~   ** Setpoint was never recovered and/or heater never turned on
   ** Warning ** Check input. Pump nominal power or motor efficiency is set to 0, for pump=MAINS PRESSURE
   ** Warning ** AirflowNetwork::Solver::validate_distribution: Heat pump water heater is simulated along with an AirflowNetwork but is not included in the AirflowNetwork.
   ** Warning ** Output:Meter: invalid Key Name="ELECTRIC_RANGE:INTERIOREQUIPMENT:ELECTRICITY" - not found.
   ** Warning ** Output:Meter: invalid Key Name="ELECTRIC_DRYER:INTERIOREQUIPMENT:ELECTRICITY" - not found.
   ** Warning ** Output:Meter: invalid Key Name="HEATRECOVERY:ELECTRICITY" - not found.
   ** Warning ** Output:Meter: invalid Key Name="HEATING:NATURALGAS" - not found.
   ** Warning ** Output:Meter: invalid Key Name="WATERSYSTEMS:NATURALGAS" - not found.
   ** Warning ** Output:Meter: invalid Key Name="PROPANE:FACILITY" - not found.
   ** Warning ** Output:Meter: invalid Key Name="HEATING:PROPANE" - not found.
   ************* Testing Individual Branch Integrity
   ************* All Branches passed integrity testing
   ************* Testing Individual Supply Air Path Integrity
   ************* All Supply Air Paths passed integrity testing
   ************* Testing Individual Return Air Path Integrity
   ************* All Return Air Paths passed integrity testing
   ************* No node connection errors were found.
   ************* Beginning Simulation
   ** Warning ** CalcEquipmentFlowRates: "TOTAL HOT WATER LOAD" - Target water temperature is greater than the hot water temperature by (5.09 C)
   **   ~~~   **  Environment=EXTREME_WINTER, at Simulation time=01/20 06:00 - 06:15
   **   ~~~   ** ...target water temperature     = 53.33 C
   **   ~~~   ** ...hot water temperature        = 48.25 C
   **   ~~~   ** ...Target water temperature should be less than or equal to the hot water temperature. Verify temperature setpoints and schedules.
   ** Warning ** SimHVAC: Maximum iterations (20) exceeded for all HVAC loops, at EXTREME_SUMMER, 07/31 04:53 - 05:00
   **   ~~~   ** The solution for one or more of the Air Loop HVAC systems did not appear to converge
   **   ~~~   ** Air System Named = CENTRAL SYSTEM did not converge for mass flow rate
   **   ~~~   ** Check values should be zero. Most Recent values listed first.
   **   ~~~   ** Demand-to-Supply interface mass flow rate check value iteration history trace: 0.108841,0.108841,0.108841,0.108841,0.108841,0.108841,0.108841,0.108841,0.108841,0.108841,
   **   ~~~   ** Supply-to-demand interface deck 1 mass flow rate check value iteration history trace: 0.108841,0.108841,0.108841,0.108841,0.108841,0.108841,0.108841,0.108841,0.108841,0.108841,
   **   ~~~   ** Air System Named = CENTRAL SYSTEM did not converge for energy
   **   ~~~   ** Check values should be zero. Most Recent values listed first.
   **   ~~~   ** Demand-to-Supply interface energy check value iteration history trace: 2683.546172,2683.546173,2683.546174,2683.546175,2683.546175,2683.546176,2683.546177,2683.546178,2683.546178,2683.546179,
   **   ~~~   ** Supply-to-demand interface deck 1 energy check value iteration history trace: 1293.564892,1293.564892,1293.564893,1293.564893,1293.564893,1293.564894,1293.564894,1293.564894,1293.564895,1293.564895,
   ** Warning ** SimHVAC: Maximum iterations (20) exceeded for all HVAC loops, at ANNUAL, 02/14 18:15 - 18:30
   **   ~~~   ** The solution for one or more of the Air Loop HVAC systems did not appear to converge
   **   ~~~   ** Air System Named = CENTRAL SYSTEM did not converge for mass flow rate
   **   ~~~   ** Check values should be zero. Most Recent values listed first.
   **   ~~~   ** Demand-to-Supply interface mass flow rate check value iteration history trace: 9.753391E-002,9.753391E-002,9.753391E-002,9.753391E-002,9.753391E-002,9.753391E-002,9.753391E-002,9.753391E-002,9.753391E-002,9.753391E-002,
   **   ~~~   ** Supply-to-demand interface deck 1 mass flow rate check value iteration history trace: 9.753391E-002,9.753391E-002,9.753391E-002,9.753391E-002,9.753391E-002,9.753391E-002,9.753391E-002,9.753391E-002,9.753391E-002,9.753391E-002,
   **   ~~~   ** Air System Named = CENTRAL SYSTEM did not converge for energy
   **   ~~~   ** Check values should be zero. Most Recent values listed first.
   **   ~~~   ** Demand-to-Supply interface energy check value iteration history trace: 1921.371262,1921.371262,1921.371262,1921.371262,1921.371262,1921.371262,1921.371262,1921.371262,1921.371261,1921.371261,
   **   ~~~   ** Supply-to-demand interface deck 1 energy check value iteration history trace: 3021.592005,3021.592005,3021.592004,3021.592004,3021.592004,3021.592004,3021.592004,3021.592004,3021.592003,3021.592003,
   ** Warning ** SimHVAC: Maximum iterations (20) exceeded for all HVAC loops, at ANNUAL, 02/14 18:38 - 18:45
   **   ~~~   ** The solution for one or more of the Air Loop HVAC systems did not appear to converge
   **   ~~~   ** Air System Named = CENTRAL SYSTEM did not converge for mass flow rate
   **   ~~~   ** Check values should be zero. Most Recent values listed first.
   **   ~~~   ** Demand-to-Supply interface mass flow rate check value iteration history trace: 9.724902E-002,9.724902E-002,9.724902E-002,9.724902E-002,9.724902E-002,9.724902E-002,9.724902E-002,9.724902E-002,9.724902E-002,9.724902E-002,
   **   ~~~   ** Supply-to-demand interface deck 1 mass flow rate check value iteration history trace: 9.724902E-002,9.724902E-002,9.724902E-002,9.724902E-002,9.724902E-002,9.724902E-002,9.724902E-002,9.724902E-002,9.724902E-002,9.724902E-002,
   **   ~~~   ** Air System Named = CENTRAL SYSTEM did not converge for energy
   **   ~~~   ** Check values should be zero. Most Recent values listed first.
   **   ~~~   ** Demand-to-Supply interface energy check value iteration history trace: 1925.790250,1925.790250,1925.790249,1925.790249,1925.790249,1925.790249,1925.790249,1925.790249,1925.790249,1925.790249,
   **   ~~~   ** Supply-to-demand interface deck 1 energy check value iteration history trace: 3012.169875,3012.169875,3012.169875,3012.169875,3012.169874,3012.169874,3012.169874,3012.169874,3012.169874,3012.169874,
   ** Warning ** SimHVAC: Maximum iterations (20) exceeded for all HVAC loops, at ANNUAL, 02/16 10:15 - 10:18
   **   ~~~   ** The solution for one or more of the Air Loop HVAC systems did not appear to converge
   **   ~~~   ** Air System Named = CENTRAL SYSTEM did not converge for mass flow rate
   **   ~~~   ** Check values should be zero. Most Recent values listed first.
   **   ~~~   ** Demand-to-Supply interface mass flow rate check value iteration history trace: 4.488078E-002,4.488078E-002,4.488078E-002,4.488078E-002,4.488078E-002,4.488078E-002,4.488078E-002,4.488078E-002,4.488078E-002,4.488078E-002,
   **   ~~~   ** Supply-to-demand interface deck 1 mass flow rate check value iteration history trace: 4.488078E-002,4.488078E-002,4.488078E-002,4.488078E-002,4.488078E-002,4.488078E-002,4.488078E-002,4.488078E-002,4.488078E-002,4.488078E-002,
   **   ~~~   ** Air System Named = CENTRAL SYSTEM did not converge for energy
   **   ~~~   ** Check values should be zero. Most Recent values listed first.
   **   ~~~   ** Demand-to-Supply interface energy check value iteration history trace: 889.386964,889.386964,889.386964,889.386964,889.386964,889.386964,889.386964,889.386963,889.386963,889.386963,
   **   ~~~   ** Supply-to-demand interface deck 1 energy check value iteration history trace: 1569.384277,1569.384277,1569.384277,1569.384277,1569.384277,1569.384277,1569.384277,1569.384276,1569.384276,1569.384276,
   ** Warning ** SimHVAC: Maximum iterations (20) exceeded for all HVAC loops, at ANNUAL, 02/27 10:10 - 10:12
   **   ~~~   ** The solution for one or more of the Air Loop HVAC systems did not appear to converge
   **   ~~~   ** Air System Named = CENTRAL SYSTEM did not converge for mass flow rate
   **   ~~~   ** Check values should be zero. Most Recent values listed first.
   **   ~~~   ** Demand-to-Supply interface mass flow rate check value iteration history trace: 9.142817E-002,9.142817E-002,9.142817E-002,9.142817E-002,9.142817E-002,9.142817E-002,9.142817E-002,9.142817E-002,9.142817E-002,9.142817E-002,
   **   ~~~   ** Supply-to-demand interface deck 1 mass flow rate check value iteration history trace: 9.142817E-002,9.142817E-002,9.142817E-002,9.142817E-002,9.142817E-002,9.142817E-002,9.142817E-002,9.142817E-002,9.142817E-002,9.142817E-002,
   **   ~~~   ** Air System Named = CENTRAL SYSTEM did not converge for energy
   **   ~~~   ** Check values should be zero. Most Recent values listed first.
   **   ~~~   ** Demand-to-Supply interface energy check value iteration history trace: 1812.687384,1812.687384,1812.687384,1812.687384,1812.687384,1812.687383,1812.687383,1812.687383,1812.687383,1812.687383,
   **   ~~~   ** Supply-to-demand interface deck 1 energy check value iteration history trace: 2796.631847,2796.631846,2796.631846,2796.631846,2796.631846,2796.631846,2796.631845,2796.631845,2796.631845,2796.631845,
   ** Warning ** SimHVAC: Maximum iterations (20) exceeded for all HVAC loops, at ANNUAL, 03/05 10:45 - 11:00
   **   ~~~   ** The solution for one or more of the Air Loop HVAC systems did not appear to converge
   **   ~~~   ** Air System Named = CENTRAL SYSTEM did not converge for mass flow rate
   **   ~~~   ** Check values should be zero. Most Recent values listed first.
   **   ~~~   ** Demand-to-Supply interface mass flow rate check value iteration history trace: 6.404296E-002,6.404296E-002,6.404296E-002,6.404296E-002,6.404296E-002,6.404296E-002,6.404296E-002,6.404296E-002,6.404296E-002,6.404296E-002,
   **   ~~~   ** Supply-to-demand interface deck 1 mass flow rate check value iteration history trace: 6.404296E-002,6.404296E-002,6.404296E-002,6.404296E-002,6.404296E-002,6.404296E-002,6.404296E-002,6.404296E-002,6.404296E-002,6.404296E-002,
   **   ~~~   ** Air System Named = CENTRAL SYSTEM did not converge for energy
   **   ~~~   ** Check values should be zero. Most Recent values listed first.
   **   ~~~   ** Demand-to-Supply interface energy check value iteration history trace: 1269.099199,1269.099199,1269.099199,1269.099199,1269.099199,1269.099199,1269.099199,1269.099199,1269.099199,1269.099199,
   **   ~~~   ** Supply-to-demand interface deck 1 energy check value iteration history trace: 2403.486144,2403.486144,2403.486144,2403.486144,2403.486144,2403.486144,2403.486144,2403.486143,2403.486143,2403.486143,
   **   ~~~   ** Node named ZONE INLET NODE shows oscillating temperatures across iterations with a repeated value of 37.348368
   **   ~~~   ** Node named ZONE INLET NODE temperature [C] iteration history trace (most recent first): 37.348368,37.348368,37.348368,37.348368,37.348367,37.348367,37.348367,37.348367,37.348366,37.348366,
   ** Warning ** SimHVAC: Maximum iterations (20) exceeded for all HVAC loops, at ANNUAL, 03/05 11:00 - 11:15
   **   ~~~   ** The solution for one or more of the Air Loop HVAC systems did not appear to converge
   **   ~~~   ** Air System Named = CENTRAL SYSTEM did not converge for mass flow rate
   **   ~~~   ** Check values should be zero. Most Recent values listed first.
   **   ~~~   ** Demand-to-Supply interface mass flow rate check value iteration history trace: 6.148679E-002,6.148679E-002,6.148679E-002,6.148679E-002,6.148679E-002,6.148679E-002,6.148679E-002,6.148679E-002,6.148679E-002,6.148679E-002,
   **   ~~~   ** Supply-to-demand interface deck 1 mass flow rate check value iteration history trace: 6.148679E-002,6.148679E-002,6.148679E-002,6.148679E-002,6.148679E-002,6.148679E-002,6.148679E-002,6.148679E-002,6.148679E-002,6.148679E-002,
   **   ~~~   ** Air System Named = CENTRAL SYSTEM did not converge for energy
   **   ~~~   ** Check values should be zero. Most Recent values listed first.
   **   ~~~   ** Demand-to-Supply interface energy check value iteration history trace: 1211.941145,1211.941145,1211.941145,1211.941145,1211.941145,1211.941145,1211.941145,1211.941144,1211.941144,1211.941144,
   **   ~~~   ** Supply-to-demand interface deck 1 energy check value iteration history trace: 2319.085053,2319.085053,2319.085053,2319.085053,2319.085053,2319.085053,2319.085053,2319.085053,2319.085053,2319.085053,
   **   ~~~   ** Node named ZONE INLET NODE shows oscillating temperatures across iterations with a repeated value of 37.534985
   **   ~~~   ** Node named ZONE INLET NODE temperature [C] iteration history trace (most recent first): 37.534985,37.534984,37.534984,37.534984,37.534984,37.534983,37.534983,37.534983,37.534983,37.534982,
   ** Warning ** SimHVAC: Maximum iterations (20) exceeded for all HVAC loops, at ANNUAL, 03/13 11:02 - 11:05
   **   ~~~   ** The solution for one or more of the Air Loop HVAC systems did not appear to converge
   **   ~~~   ** Air System Named = CENTRAL SYSTEM did not converge for mass flow rate
   **   ~~~   ** Check values should be zero. Most Recent values listed first.
   **   ~~~   ** Demand-to-Supply interface mass flow rate check value iteration history trace: 7.287126E-002,7.287126E-002,7.287126E-002,7.287126E-002,7.287126E-002,7.287126E-002,7.287126E-002,7.287126E-002,7.287126E-002,7.287126E-002,
   **   ~~~   ** Supply-to-demand interface deck 1 mass flow rate check value iteration history trace: 7.287126E-002,7.287126E-002,7.287126E-002,7.287126E-002,7.287126E-002,7.287126E-002,7.287126E-002,7.287126E-002,7.287126E-002,7.287126E-002,
   **   ~~~   ** Air System Named = CENTRAL SYSTEM did not converge for energy
   **   ~~~   ** Check values should be zero. Most Recent values listed first.
   **   ~~~   ** Demand-to-Supply interface energy check value iteration history trace: 1444.192850,1444.192849,1444.192849,1444.192849,1444.192849,1444.192849,1444.192849,1444.192849,1444.192849,1444.192849,
   **   ~~~   ** Supply-to-demand interface deck 1 energy check value iteration history trace: 2283.727998,2283.727998,2283.727998,2283.727998,2283.727998,2283.727997,2283.727997,2283.727997,2283.727997,2283.727997,
   ** Warning ** SimHVAC: Maximum iterations (20) exceeded for all HVAC loops, at ANNUAL, 03/17 07:10 - 07:15
   **   ~~~   ** The solution for one or more of the Air Loop HVAC systems did not appear to converge
   **   ~~~   ** Air System Named = CENTRAL SYSTEM did not converge for mass flow rate
   **   ~~~   ** Check values should be zero. Most Recent values listed first.
   **   ~~~   ** Demand-to-Supply interface mass flow rate check value iteration history trace: 5.384484E-002,5.384484E-002,5.384484E-002,5.384484E-002,5.384484E-002,5.384484E-002,5.384484E-002,5.384484E-002,5.384484E-002,5.384484E-002,
   **   ~~~   ** Supply-to-demand interface deck 1 mass flow rate check value iteration history trace: 5.384484E-002,5.384484E-002,5.384484E-002,5.384484E-002,5.384484E-002,5.384484E-002,5.384484E-002,5.384484E-002,5.384484E-002,5.384484E-002,
   **   ~~~   ** Air System Named = CENTRAL SYSTEM did not converge for energy
   **   ~~~   ** Check values should be zero. Most Recent values listed first.
   **   ~~~   ** Demand-to-Supply interface energy check value iteration history trace: 1067.015585,1067.015585,1067.015585,1067.015585,1067.015585,1067.015585,1067.015585,1067.015585,1067.015585,1067.015585,
   **   ~~~   ** Supply-to-demand interface deck 1 energy check value iteration history trace: 1984.774274,1984.774274,1984.774274,1984.774274,1984.774274,1984.774274,1984.774274,1984.774274,1984.774274,1984.774273,
   ** Warning ** SimHVAC: Maximum iterations (20) exceeded for all HVAC loops, at ANNUAL, 03/26 09:48 - 09:51
   **   ~~~   ** The solution for one or more of the Air Loop HVAC systems did not appear to converge
   **   ~~~   ** Air System Named = CENTRAL SYSTEM did not converge for mass flow rate
   **   ~~~   ** Check values should be zero. Most Recent values listed first.
   **   ~~~   ** Demand-to-Supply interface mass flow rate check value iteration history trace: 6.964357E-002,6.964357E-002,6.964357E-002,6.964357E-002,6.964357E-002,6.964357E-002,6.964357E-002,6.964357E-002,6.964357E-002,6.964357E-002,
   **   ~~~   ** Supply-to-demand interface deck 1 mass flow rate check value iteration history trace: 6.964357E-002,6.964357E-002,6.964357E-002,6.964357E-002,6.964357E-002,6.964357E-002,6.964357E-002,6.964357E-002,6.964357E-002,6.964357E-002,
   **   ~~~   ** Air System Named = CENTRAL SYSTEM did not converge for energy
   **   ~~~   ** Check values should be zero. Most Recent values listed first.
   **   ~~~   ** Demand-to-Supply interface energy check value iteration history trace: 1380.159276,1380.159276,1380.159276,1380.159276,1380.159276,1380.159276,1380.159276,1380.159276,1380.159276,1380.159276,
   **   ~~~   ** Supply-to-demand interface deck 1 energy check value iteration history trace: 2503.299873,2503.299873,2503.299873,2503.299873,2503.299873,2503.299873,2503.299873,2503.299873,2503.299872,2503.299872,
   ** Warning ** SimHVAC: Maximum iterations (20) exceeded for all HVAC loops, at ANNUAL, 04/05 08:30 - 08:33
   **   ~~~   ** The solution for one or more of the Air Loop HVAC systems did not appear to converge
   **   ~~~   ** Air System Named = CENTRAL SYSTEM did not converge for mass flow rate
   **   ~~~   ** Check values should be zero. Most Recent values listed first.
   **   ~~~   ** Demand-to-Supply interface mass flow rate check value iteration history trace: 8.155179E-002,8.155179E-002,8.155179E-002,8.155179E-002,8.155179E-002,8.155179E-002,8.155179E-002,8.155179E-002,8.155179E-002,8.155179E-002,
   **   ~~~   ** Supply-to-demand interface deck 1 mass flow rate check value iteration history trace: 8.155179E-002,8.155179E-002,8.155179E-002,8.155179E-002,8.155179E-002,8.155179E-002,8.155179E-002,8.155179E-002,8.155179E-002,8.155179E-002,
   **   ~~~   ** Air System Named = CENTRAL SYSTEM did not converge for energy
   **   ~~~   ** Check values should be zero. Most Recent values listed first.
   **   ~~~   ** Demand-to-Supply interface energy check value iteration history trace: 1616.088682,1616.088682,1616.088682,1616.088682,1616.088682,1616.088681,1616.088681,1616.088681,1616.088681,1616.088681,
   **   ~~~   ** Supply-to-demand interface deck 1 energy check value iteration history trace: 2668.836182,2668.836182,2668.836182,2668.836182,2668.836182,2668.836181,2668.836181,2668.836181,2668.836181,2668.836181,
   ** Warning ** SimHVAC: Maximum iterations (20) exceeded for all HVAC loops, at ANNUAL, 04/11 06:08 - 06:15
   **   ~~~   ** The solution for one or more of the Air Loop HVAC systems did not appear to converge
   **   ~~~   ** Air System Named = CENTRAL SYSTEM did not converge for mass flow rate
   **   ~~~   ** Check values should be zero. Most Recent values listed first.
   **   ~~~   ** Demand-to-Supply interface mass flow rate check value iteration history trace: 6.570034E-002,6.570034E-002,6.570034E-002,6.570034E-002,6.570034E-002,6.570034E-002,6.570034E-002,6.570034E-002,6.570034E-002,6.570034E-002,
   **   ~~~   ** Supply-to-demand interface deck 1 mass flow rate check value iteration history trace: 6.570034E-002,6.570034E-002,6.570034E-002,6.570034E-002,6.570034E-002,6.570034E-002,6.570034E-002,6.570034E-002,6.570034E-002,6.570034E-002,
   **   ~~~   ** Air System Named = CENTRAL SYSTEM did not converge for energy
   **   ~~~   ** Check values should be zero. Most Recent values listed first.
   **   ~~~   ** Demand-to-Supply interface energy check value iteration history trace: 1302.367475,1302.367475,1302.367475,1302.367475,1302.367474,1302.367474,1302.367474,1302.367474,1302.367474,1302.367474,
   **   ~~~   ** Supply-to-demand interface deck 1 energy check value iteration history trace: 2316.452809,2316.452809,2316.452809,2316.452809,2316.452809,2316.452809,2316.452809,2316.452809,2316.452808,2316.452808,
   ** Warning ** SimHVAC: Maximum iterations (20) exceeded for all HVAC loops, at ANNUAL, 04/15 11:45 - 12:00
   **   ~~~   ** The solution for one or more of the Air Loop HVAC systems did not appear to converge
   **   ~~~   ** Air System Named = CENTRAL SYSTEM did not converge for mass flow rate
   **   ~~~   ** Check values should be zero. Most Recent values listed first.
   **   ~~~   ** Demand-to-Supply interface mass flow rate check value iteration history trace: 6.495542E-002,6.495542E-002,6.495542E-002,6.495542E-002,6.495542E-002,6.495542E-002,6.495542E-002,6.495542E-002,6.495542E-002,6.495542E-002,
   **   ~~~   ** Supply-to-demand interface deck 1 mass flow rate check value iteration history trace: 6.495542E-002,6.495542E-002,6.495542E-002,6.495542E-002,6.495542E-002,6.495542E-002,6.495542E-002,6.495542E-002,6.495542E-002,6.495542E-002,
   **   ~~~   ** Air System Named = CENTRAL SYSTEM did not converge for energy
   **   ~~~   ** Check values should be zero. Most Recent values listed first.
   **   ~~~   ** Demand-to-Supply interface energy check value iteration history trace: 1287.221101,1287.221101,1287.221101,1287.221101,1287.221101,1287.221101,1287.221101,1287.221100,1287.221100,1287.221100,
   **   ~~~   ** Supply-to-demand interface deck 1 energy check value iteration history trace: 2057.965472,2057.965472,2057.965472,2057.965472,2057.965472,2057.965472,2057.965472,2057.965472,2057.965471,2057.965471,
   ** Warning ** SimHVAC: Maximum iterations (20) exceeded for all HVAC loops, at ANNUAL, 04/15 12:00 - 12:15
   **   ~~~   ** The solution for one or more of the Air Loop HVAC systems did not appear to converge
   **   ~~~   ** Air System Named = CENTRAL SYSTEM did not converge for mass flow rate
   **   ~~~   ** Check values should be zero. Most Recent values listed first.
   **   ~~~   ** Demand-to-Supply interface mass flow rate check value iteration history trace: 6.223305E-002,6.223305E-002,6.223305E-002,6.223305E-002,6.223305E-002,6.223305E-002,6.223305E-002,6.223305E-002,6.223305E-002,6.223305E-002,
   **   ~~~   ** Supply-to-demand interface deck 1 mass flow rate check value iteration history trace: 6.223305E-002,6.223305E-002,6.223305E-002,6.223305E-002,6.223305E-002,6.223305E-002,6.223305E-002,6.223305E-002,6.223305E-002,6.223305E-002,
   **   ~~~   ** Air System Named = CENTRAL SYSTEM did not converge for energy
   **   ~~~   ** Check values should be zero. Most Recent values listed first.
   **   ~~~   ** Demand-to-Supply interface energy check value iteration history trace: 1227.594570,1227.594570,1227.594570,1227.594570,1227.594569,1227.594569,1227.594569,1227.594569,1227.594569,1227.594569,
   **   ~~~   ** Supply-to-demand interface deck 1 energy check value iteration history trace: 1969.280800,1969.280800,1969.280800,1969.280799,1969.280799,1969.280799,1969.280799,1969.280799,1969.280799,1969.280799,
   ************* Simulation Error Summary *************
   ** Warning ** The following Report Variables were requested but not generated -- check.rdd file
   **   ~~~   ** Either the IDF did not contain these elements, the variable name is misspelled,
   **   ~~~   ** or the requested variable is an advanced output which requires Output : Diagnostics, DisplayAdvancedReportVariables;
   ************* Key=*, VarName=BASEBOARD TOTAL HEATING ENERGY, Frequency=
   ************* Key=*, VarName=WATER HEATER NATURALGAS ENERGY, Frequency=
   ************* Key=*, VarName=COOLING COIL TOTAL HEATING ENERGY, Frequency=
   ************* There are 34 unused schedules in input.
   ************* There are 388 unused week schedules in input.
   ************* There are 396 unused day schedules in input.
   ************* Use Output:Diagnostics,DisplayUnusedSchedules; to see them.
   *************
   ************* ===== Recurring Error Summary =====
   ************* The following recurring error messages occurred.
   *************
   *************  ** Warning ** "TOTAL HOT WATER LOAD" - Target water temperature should be less than or equal to the hot water temperature error continues...
   *************  **   ~~~   **   This error occurred 109919 total times;
   *************  **   ~~~   **   during Warmup 0 times;
   *************  **   ~~~   **   during Sizing 0 times.
   *************  **   ~~~   **   Max=13.243136  Min=1.271684E-004
   *************
   *************  ** Warning ** SimHVAC: Exceeding Maximum iterations for all HVAC loops, during ANNUAL continues
   *************  **   ~~~   **   This error occurred 13 total times;
   *************  **   ~~~   **   during Warmup 0 times;
   *************  **   ~~~   **   during Sizing 0 times.
   *************
   *************
   ************* ===== Final Error Summary =====
   ************* The following error categories occurred.  Consider correcting or noting.
   ************* Nominally Unused Constructions
   ************* ..The nominally unused constructions warning is provided to alert you to potential conditions that can cause
   ************* ..extra time during simulation. Each construction is calculated by the algorithm indicated in the HeatBalanceAlgorithm
   ************* ..object. You may remove the constructions indicated (when you use the DisplayExtraWarnings option).
   *************
   ************* EnergyPlus Warmup Error Summary. During Warmup: 0 Warning; 0 Severe Errors.
   ************* EnergyPlus Sizing Error Summary. During Sizing: 4 Warning; 0 Severe Errors.
   ************* EnergyPlus Completed Successfully-- 109963 Warning; 0 Severe Errors; Elapsed Time=00hr 01min 24.99sec
