Program Version,EnergyPlus, Version 22.2.0-c249759bad, YMD=2023.09.01 19:12,
   ************* Beginning Zone Sizing Calculations
   ** Warning ** ProcessScheduleInput: Schedule:Constant="ALWAYS ON DISCRETE", Schedule Type Limits Name="ONOFF" not found -- will not be validated
   ** Warning ** Foundation:Kiva="KIVA FOUNDATION", no Interior Horizontal Insulation Material Name defined
   **   ~~~   ** Interior Horizontal Insulation Depth will not be used.
   ** Warning ** CheckUsedConstructions: There are 15 nominally unused constructions in input.
   **   ~~~   ** Each Unused construction is shown.
   ************* Construction=INTERIOR FLOOR
   ************* Construction=INTERIOR WINDOW
   ************* Construction=EXTERIOR DOOR
   ************* Construction=INTERIOR DOOR
   ************* Construction=GABLE CONSTRUCTION
   ************* Construction=CRAWL_FLOOR
   ************* Construction=INSULATED PIPE
   ************* Construction=PLAIN PIPE
   ************* Construction=TDD PIPE
   ************* Construction=TDD DOME
   ************* Construction=TDD DIFFUSER
   ************* Construction=CRAWL WALL
   ************* Construction=CEILING-FLOOR-LAYER
   ************* Construction=SLAB CONSTRUCTION W FULL R10 INSULATION
   ************* Construction=SLAB CONSTRUCTION W FULL R5 INSULATION
   ** Warning ** GetDXCoils: Coil:Heating:DX:SingleSpeed="DX_HEATING_COIL" curve values
   **   ~~~   ** ... Defrost Energy Input Ratio Function of Temperature Curve Name = DEFROSTEIR output is not equal to 1.0 (+ or - 10%) at rated conditions.
   **   ~~~   ** ... Curve output at rated conditions = 0.152
   ************* Beginning System Sizing Calculations
   ************* Beginning Plant Sizing Calculations
   ** Warning ** Coil:WaterHeating:AirToWaterHeatPump:Wrapped "HEAT PUMP WATER HEATER EVAPORATOR": Rated air volume flow rate per watt of rated total water heating capacity is out of range
   **   ~~~   ** Min Rated Vol Flow Per Watt=[4.027E-005], Rated Vol Flow Per Watt=[1.510E-004], Max Rated Vol Flow Per Watt=[8.056E-005]. See Input-Output Reference Manual for valid range.
   ************* SizeFan: : Potential issue with equipment sizing for Fan:OnOff HEAT PUMP WATER HEATER FAN
   **   ~~~   ** User-Specified Maximum Flow Rate [m3/s] = 0.22653
   **   ~~~   ** differs from Design Size Maximum Flow Rate [m3/s] = 7.55250E-002
   **   ~~~   ** This may, or may not, indicate mismatched component sizes.
   **   ~~~   ** Verify that the value entered is intended and is consistent with other components.
   ** Warning ** Water heater = WATER HEATER TANK:  Recovery Efficiency and Energy Factor could not be calculated during the test for standard ratings
   **   ~~~   ** Setpoint was never recovered and/or heater never turned on
   ** Warning ** Check input. Pump nominal power or motor efficiency is set to 0, for pump=MAINS PRESSURE
   ** Warning ** AirflowNetwork::Solver::validate_distribution: Heat pump water heater is simulated along with an AirflowNetwork but is not included in the AirflowNetwork.
   ** Warning ** Output:Meter: invalid Key Name="ELECTRIC_RANGE:INTERIOREQUIPMENT:ELECTRICITY" - not found.
   ** Warning ** Output:Meter: invalid Key Name="ELECTRIC_DRYER:INTERIOREQUIPMENT:ELECTRICITY" - not found.
   ** Warning ** Output:Meter: invalid Key Name="HEATRECOVERY:ELECTRICITY" - not found.
   ** Warning ** Output:Meter: invalid Key Name="HEATING:NATURALGAS" - not found.
   ** Warning ** Output:Meter: invalid Key Name="WATERSYSTEMS:NATURALGAS" - not found.
   ** Warning ** Output:Meter: invalid Key Name="PROPANE:FACILITY" - not found.
   ** Warning ** Output:Meter: invalid Key Name="HEATING:PROPANE" - not found.
   ************* Testing Individual Branch Integrity
   ************* All Branches passed integrity testing
   ************* Testing Individual Supply Air Path Integrity
   ************* All Supply Air Paths passed integrity testing
   ************* Testing Individual Return Air Path Integrity
   ************* All Return Air Paths passed integrity testing
   ************* No node connection errors were found.
   ************* Beginning Simulation
   ** Warning ** CalcEquipmentFlowRates: "TOTAL HOT WATER LOAD" - Target water temperature is greater than the hot water temperature by (4.53E-002 C)
   **   ~~~   **  Environment=EXTREME_WINTER, at Simulation time=01/20 06:45 - 07:00
   **   ~~~   ** ...target water temperature     = 53.33 C
   **   ~~~   ** ...hot water temperature        = 53.29 C
   **   ~~~   ** ...Target water temperature should be less than or equal to the hot water temperature. Verify temperature setpoints and schedules.
   ** Warning ** SimHVAC: Maximum iterations (20) exceeded for all HVAC loops, at ANNUAL, 03/27 09:00 - 09:15
   **   ~~~   ** The solution for one or more of the Air Loop HVAC systems did not appear to converge
   **   ~~~   ** Air System Named = CENTRAL SYSTEM did not converge for mass flow rate
   **   ~~~   ** Check values should be zero. Most Recent values listed first.
   **   ~~~   ** Demand-to-Supply interface mass flow rate check value iteration history trace: 8.991365E-002,8.991365E-002,8.991365E-002,8.991365E-002,8.991365E-002,8.991365E-002,8.991365E-002,8.991365E-002,8.991365E-002,8.991365E-002,
   **   ~~~   ** Supply-to-demand interface deck 1 mass flow rate check value iteration history trace: 8.991365E-002,8.991365E-002,8.991365E-002,8.991365E-002,8.991365E-002,8.991365E-002,8.991365E-002,8.991365E-002,8.991365E-002,8.991365E-002,
   **   ~~~   ** Air System Named = CENTRAL SYSTEM did not converge for energy
   **   ~~~   ** Check values should be zero. Most Recent values listed first.
   **   ~~~   ** Demand-to-Supply interface energy check value iteration history trace: 1781.680513,1781.680513,1781.680513,1781.680513,1781.680513,1781.680513,1781.680513,1781.680513,1781.680512,1781.680512,
   **   ~~~   ** Supply-to-demand interface deck 1 energy check value iteration history trace: 2809.678414,2809.678414,2809.678414,2809.678413,2809.678413,2809.678413,2809.678413,2809.678413,2809.678412,2809.678412,
   ** Warning ** SimHVAC: Maximum iterations (20) exceeded for all HVAC loops, at ANNUAL, 04/14 00:30 - 00:45
   **   ~~~   ** The solution for one or more of the Air Loop HVAC systems did not appear to converge
   **   ~~~   ** Air System Named = CENTRAL SYSTEM did not converge for mass flow rate
   **   ~~~   ** Check values should be zero. Most Recent values listed first.
   **   ~~~   ** Demand-to-Supply interface mass flow rate check value iteration history trace: 6.696787E-002,6.696787E-002,6.696787E-002,6.696787E-002,6.696787E-002,6.696787E-002,6.696787E-002,6.696787E-002,6.696787E-002,6.696787E-002,
   **   ~~~   ** Supply-to-demand interface deck 1 mass flow rate check value iteration history trace: 6.696787E-002,6.696787E-002,6.696787E-002,6.696787E-002,6.696787E-002,6.696787E-002,6.696787E-002,6.696787E-002,6.696787E-002,6.696787E-002,
   **   ~~~   ** Air System Named = CENTRAL SYSTEM did not converge for energy
   **   ~~~   ** Check values should be zero. Most Recent values listed first.
   **   ~~~   ** Demand-to-Supply interface energy check value iteration history trace: 1251.678447,1251.678447,1251.678447,1251.678447,1251.678447,1251.678447,1251.678447,1251.678447,1251.678447,1251.678447,
   **   ~~~   ** Supply-to-demand interface deck 1 energy check value iteration history trace: 1988.491397,1988.491397,1988.491397,1988.491397,1988.491397,1988.491396,1988.491396,1988.491396,1988.491396,1988.491396,
   ** Warning ** SimHVAC: Maximum iterations (20) exceeded for all HVAC loops, at ANNUAL, 04/23 21:00 - 21:15
   **   ~~~   ** The solution for one or more of the Air Loop HVAC systems did not appear to converge
   **   ~~~   ** Air System Named = CENTRAL SYSTEM did not converge for mass flow rate
   **   ~~~   ** Check values should be zero. Most Recent values listed first.
   **   ~~~   ** Demand-to-Supply interface mass flow rate check value iteration history trace: 5.730090E-002,5.730090E-002,5.730090E-002,5.730090E-002,5.730090E-002,5.730090E-002,5.730090E-002,5.730090E-002,5.730090E-002,5.730090E-002,
   **   ~~~   ** Supply-to-demand interface deck 1 mass flow rate check value iteration history trace: 5.730090E-002,5.730090E-002,5.730090E-002,5.730090E-002,5.730090E-002,5.730090E-002,5.730090E-002,5.730090E-002,5.730090E-002,5.730090E-002,
   **   ~~~   ** Air System Named = CENTRAL SYSTEM did not converge for energy
   **   ~~~   ** Check values should be zero. Most Recent values listed first.
   **   ~~~   ** Demand-to-Supply interface energy check value iteration history trace: 1133.790704,1133.790704,1133.790704,1133.790704,1133.790704,1133.790704,1133.790704,1133.790704,1133.790704,1133.790704,
   **   ~~~   ** Supply-to-demand interface deck 1 energy check value iteration history trace: 1936.139905,1936.139905,1936.139905,1936.139905,1936.139905,1936.139905,1936.139905,1936.139905,1936.139905,1936.139905,
   ** Warning ** SimHVAC: Maximum iterations (20) exceeded for all HVAC loops, at ANNUAL, 04/24 08:32 - 08:33
   **   ~~~   ** The solution for one or more of the Air Loop HVAC systems did not appear to converge
   **   ~~~   ** Air System Named = CENTRAL SYSTEM did not converge for mass flow rate
   **   ~~~   ** Check values should be zero. Most Recent values listed first.
   **   ~~~   ** Demand-to-Supply interface mass flow rate check value iteration history trace: 7.104912E-002,7.104912E-002,7.104912E-002,7.104912E-002,7.104912E-002,7.104912E-002,7.104912E-002,7.104912E-002,7.104912E-002,7.104912E-002,
   **   ~~~   ** Supply-to-demand interface deck 1 mass flow rate check value iteration history trace: 7.104912E-002,7.104912E-002,7.104912E-002,7.104912E-002,7.104912E-002,7.104912E-002,7.104912E-002,7.104912E-002,7.104912E-002,7.104912E-002,
   **   ~~~   ** Air System Named = CENTRAL SYSTEM did not converge for energy
   **   ~~~   ** Check values should be zero. Most Recent values listed first.
   **   ~~~   ** Demand-to-Supply interface energy check value iteration history trace: 1408.067150,1408.067150,1408.067150,1408.067150,1408.067150,1408.067150,1408.067150,1408.067150,1408.067150,1408.067150,
   **   ~~~   ** Supply-to-demand interface deck 1 energy check value iteration history trace: 2485.467133,2485.467133,2485.467133,2485.467133,2485.467133,2485.467133,2485.467133,2485.467133,2485.467133,2485.467133,
   ** Warning ** SimHVAC: Maximum iterations (20) exceeded for all HVAC loops, at ANNUAL, 05/02 10:23 - 10:30
   **   ~~~   ** The solution for one or more of the Air Loop HVAC systems did not appear to converge
   **   ~~~   ** Air System Named = CENTRAL SYSTEM did not converge for mass flow rate
   **   ~~~   ** Check values should be zero. Most Recent values listed first.
   **   ~~~   ** Demand-to-Supply interface mass flow rate check value iteration history trace: 6.408909E-002,6.408909E-002,6.408909E-002,6.408909E-002,6.408909E-002,6.408909E-002,6.408909E-002,6.408909E-002,6.408909E-002,6.408909E-002,
   **   ~~~   ** Supply-to-demand interface deck 1 mass flow rate check value iteration history trace: 6.408909E-002,6.408909E-002,6.408909E-002,6.408909E-002,6.408909E-002,6.408909E-002,6.408909E-002,6.408909E-002,6.408909E-002,6.408909E-002,
   **   ~~~   ** Air System Named = CENTRAL SYSTEM did not converge for energy
   **   ~~~   ** Check values should be zero. Most Recent values listed first.
   **   ~~~   ** Demand-to-Supply interface energy check value iteration history trace: 1272.085676,1272.085676,1272.085676,1272.085676,1272.085676,1272.085676,1272.085675,1272.085675,1272.085675,1272.085675,
   **   ~~~   ** Supply-to-demand interface deck 1 energy check value iteration history trace: 2258.975478,2258.975478,2258.975478,2258.975478,2258.975478,2258.975478,2258.975478,2258.975478,2258.975478,2258.975477,
   ** Warning ** SimHVAC: Maximum iterations (20) exceeded for all HVAC loops, at ANNUAL, 06/01 12:15 - 12:22
   **   ~~~   ** The solution for one or more of the Air Loop HVAC systems did not appear to converge
   **   ~~~   ** Air System Named = CENTRAL SYSTEM did not converge for mass flow rate
   **   ~~~   ** Check values should be zero. Most Recent values listed first.
   **   ~~~   ** Demand-to-Supply interface mass flow rate check value iteration history trace: 6.391676E-002,6.391676E-002,6.391676E-002,6.391676E-002,6.391676E-002,6.391676E-002,6.391676E-002,6.391676E-002,6.391676E-002,6.391676E-002,
   **   ~~~   ** Supply-to-demand interface deck 1 mass flow rate check value iteration history trace: 6.391676E-002,6.391676E-002,6.391676E-002,6.391676E-002,6.391676E-002,6.391676E-002,6.391676E-002,6.391676E-002,6.391676E-002,6.391676E-002,
   **   ~~~   ** Air System Named = CENTRAL SYSTEM did not converge for energy
   **   ~~~   ** Check values should be zero. Most Recent values listed first.
   **   ~~~   ** Demand-to-Supply interface energy check value iteration history trace: 1266.539321,1266.539321,1266.539321,1266.539321,1266.539321,1266.539321,1266.539321,1266.539320,1266.539320,1266.539320,
   **   ~~~   ** Supply-to-demand interface deck 1 energy check value iteration history trace: 2198.325625,2198.325625,2198.325625,2198.325625,2198.325625,2198.325625,2198.325624,2198.325624,2198.325624,2198.325624,
   ** Warning ** SimHVAC: Maximum iterations (20) exceeded for all HVAC loops, at ANNUAL, 06/23 21:45 - 22:00
   **   ~~~   ** The solution for one or more of the Air Loop HVAC systems did not appear to converge
   **   ~~~   ** Air System Named = CENTRAL SYSTEM did not converge for mass flow rate
   **   ~~~   ** Check values should be zero. Most Recent values listed first.
   **   ~~~   ** Demand-to-Supply interface mass flow rate check value iteration history trace: 8.087463E-002,8.087463E-002,8.087463E-002,8.087463E-002,8.087463E-002,8.087463E-002,8.087463E-002,8.087463E-002,8.087463E-002,8.087463E-002,
   **   ~~~   ** Supply-to-demand interface deck 1 mass flow rate check value iteration history trace: 8.087463E-002,8.087463E-002,8.087463E-002,8.087463E-002,8.087463E-002,8.087463E-002,8.087463E-002,8.087463E-002,8.087463E-002,8.087463E-002,
   **   ~~~   ** Air System Named = CENTRAL SYSTEM did not converge for energy
   **   ~~~   ** Check values should be zero. Most Recent values listed first.
   **   ~~~   ** Demand-to-Supply interface energy check value iteration history trace: 1934.059408,1934.059408,1934.059408,1934.059408,1934.059408,1934.059409,1934.059409,1934.059409,1934.059409,1934.059409,
   **   ~~~   ** Supply-to-demand interface deck 1 energy check value iteration history trace: 775.561621,775.561621,775.561621,775.561621,775.561621,775.561621,775.561621,775.561621,775.561621,775.561621,
   ** Warning ** SimHVAC: Maximum iterations (20) exceeded for all HVAC loops, at ANNUAL, 09/18 09:35 - 09:40
   **   ~~~   ** The solution for one or more of the Air Loop HVAC systems did not appear to converge
   **   ~~~   ** Air System Named = CENTRAL SYSTEM did not converge for mass flow rate
   **   ~~~   ** Check values should be zero. Most Recent values listed first.
   **   ~~~   ** Demand-to-Supply interface mass flow rate check value iteration history trace: 6.009222E-002,6.009222E-002,6.009222E-002,6.009222E-002,6.009222E-002,6.009222E-002,6.009222E-002,6.009222E-002,6.009222E-002,6.009222E-002,
   **   ~~~   ** Supply-to-demand interface deck 1 mass flow rate check value iteration history trace: 6.009222E-002,6.009222E-002,6.009222E-002,6.009222E-002,6.009222E-002,6.009222E-002,6.009222E-002,6.009222E-002,6.009222E-002,6.009222E-002,
   **   ~~~   ** Air System Named = CENTRAL SYSTEM did not converge for energy
   **   ~~~   ** Check values should be zero. Most Recent values listed first.
   **   ~~~   ** Demand-to-Supply interface energy check value iteration history trace: 1180.448720,1180.448720,1180.448720,1180.448720,1180.448720,1180.448719,1180.448719,1180.448719,1180.448719,1180.448719,
   **   ~~~   ** Supply-to-demand interface deck 1 energy check value iteration history trace: 2075.808199,2075.808199,2075.808199,2075.808199,2075.808199,2075.808199,2075.808199,2075.808198,2075.808198,2075.808198,
   ** Warning ** SimHVAC: Maximum iterations (20) exceeded for all HVAC loops, at ANNUAL, 10/04 08:30 - 08:32
   **   ~~~   ** The solution for one or more of the Air Loop HVAC systems did not appear to converge
   **   ~~~   ** Air System Named = CENTRAL SYSTEM did not converge for mass flow rate
   **   ~~~   ** Check values should be zero. Most Recent values listed first.
   **   ~~~   ** Demand-to-Supply interface mass flow rate check value iteration history trace: 7.871969E-002,7.871969E-002,7.871969E-002,7.871969E-002,7.871969E-002,7.871969E-002,7.871969E-002,7.871969E-002,7.871969E-002,7.871969E-002,
   **   ~~~   ** Supply-to-demand interface deck 1 mass flow rate check value iteration history trace: 7.871969E-002,7.871969E-002,7.871969E-002,7.871969E-002,7.871969E-002,7.871969E-002,7.871969E-002,7.871969E-002,7.871969E-002,7.871969E-002,
   **   ~~~   ** Air System Named = CENTRAL SYSTEM did not converge for energy
   **   ~~~   ** Check values should be zero. Most Recent values listed first.
   **   ~~~   ** Demand-to-Supply interface energy check value iteration history trace: 1559.923468,1559.923468,1559.923468,1559.923468,1559.923468,1559.923468,1559.923468,1559.923468,1559.923468,1559.923468,
   **   ~~~   ** Supply-to-demand interface deck 1 energy check value iteration history trace: 2656.956974,2656.956974,2656.956974,2656.956974,2656.956974,2656.956974,2656.956973,2656.956973,2656.956973,2656.956973,
   ** Warning ** SimHVAC: Maximum iterations (20) exceeded for all HVAC loops, at ANNUAL, 10/19 10:00 - 10:04
   **   ~~~   ** The solution for one or more of the Air Loop HVAC systems did not appear to converge
   **   ~~~   ** Air System Named = CENTRAL SYSTEM did not converge for mass flow rate
   **   ~~~   ** Check values should be zero. Most Recent values listed first.
   **   ~~~   ** Demand-to-Supply interface mass flow rate check value iteration history trace: 7.067941E-002,7.067941E-002,7.067941E-002,7.067941E-002,7.067941E-002,7.067941E-002,7.067941E-002,7.067941E-002,7.067941E-002,7.067941E-002,
   **   ~~~   ** Supply-to-demand interface deck 1 mass flow rate check value iteration history trace: 7.067941E-002,7.067941E-002,7.067941E-002,7.067941E-002,7.067941E-002,7.067941E-002,7.067941E-002,7.067941E-002,7.067941E-002,7.067941E-002,
   **   ~~~   ** Air System Named = CENTRAL SYSTEM did not converge for energy
   **   ~~~   ** Check values should be zero. Most Recent values listed first.
   **   ~~~   ** Demand-to-Supply interface energy check value iteration history trace: 1400.599689,1400.599689,1400.599689,1400.599689,1400.599689,1400.599689,1400.599689,1400.599689,1400.599689,1400.599688,
   **   ~~~   ** Supply-to-demand interface deck 1 energy check value iteration history trace: 2482.842857,2482.842857,2482.842857,2482.842857,2482.842857,2482.842857,2482.842856,2482.842856,2482.842856,2482.842856,
   ** Warning ** SimHVAC: Maximum iterations (20) exceeded for all HVAC loops, at ANNUAL, 10/20 17:00 - 17:15
   **   ~~~   ** The solution for one or more of the Air Loop HVAC systems did not appear to converge
   **   ~~~   ** Air System Named = CENTRAL SYSTEM did not converge for mass flow rate
   **   ~~~   ** Check values should be zero. Most Recent values listed first.
   **   ~~~   ** Demand-to-Supply interface mass flow rate check value iteration history trace: 2.898078E-002,2.898078E-002,2.898078E-002,2.898078E-002,2.898078E-002,2.898078E-002,2.898078E-002,2.898078E-002,2.898078E-002,2.898078E-002,
   **   ~~~   ** Supply-to-demand interface deck 1 mass flow rate check value iteration history trace: 2.898078E-002,2.898078E-002,2.898078E-002,2.898078E-002,2.898078E-002,2.898078E-002,2.898078E-002,2.898078E-002,2.898078E-002,2.898078E-002,
   **   ~~~   ** Air System Named = CENTRAL SYSTEM did not converge for energy
   **   ~~~   ** Check values should be zero. Most Recent values listed first.
   **   ~~~   ** Demand-to-Supply interface energy check value iteration history trace: 574.431859,574.431859,574.431859,574.431859,574.431859,574.431859,574.431859,574.431859,574.431859,574.431859,
   **   ~~~   ** Supply-to-demand interface deck 1 energy check value iteration history trace: 1030.545531,1030.545531,1030.545531,1030.545531,1030.545531,1030.545531,1030.545531,1030.545531,1030.545531,1030.545531,
   ************* Simulation Error Summary *************
   ** Warning ** The following Report Variables were requested but not generated -- check.rdd file
   **   ~~~   ** Either the IDF did not contain these elements, the variable name is misspelled,
   **   ~~~   ** or the requested variable is an advanced output which requires Output : Diagnostics, DisplayAdvancedReportVariables;
   ************* Key=*, VarName=BASEBOARD TOTAL HEATING ENERGY, Frequency=
   ************* Key=*, VarName=WATER HEATER NATURALGAS ENERGY, Frequency=
   ************* Key=*, VarName=COOLING COIL TOTAL HEATING ENERGY, Frequency=
   ************* There are 34 unused schedules in input.
   ************* There are 388 unused week schedules in input.
   ************* There are 397 unused day schedules in input.
   ************* Use Output:Diagnostics,DisplayUnusedSchedules; to see them.
   *************
   ************* ===== Recurring Error Summary =====
   ************* The following recurring error messages occurred.
   *************
   *************  ** Warning ** "TOTAL HOT WATER LOAD" - Target water temperature should be less than or equal to the hot water temperature error continues...
   *************  **   ~~~   **   This error occurred 79291 total times;
   *************  **   ~~~   **   during Warmup 0 times;
   *************  **   ~~~   **   during Sizing 0 times.
   *************  **   ~~~   **   Max=9.720236  Min=8.843724E-004
   *************
   *************
   ************* ===== Final Error Summary =====
   ************* The following error categories occurred.  Consider correcting or noting.
   ************* Nominally Unused Constructions
   ************* ..The nominally unused constructions warning is provided to alert you to potential conditions that can cause
   ************* ..extra time during simulation. Each construction is calculated by the algorithm indicated in the HeatBalanceAlgorithm
   ************* ..object. You may remove the constructions indicated (when you use the DisplayExtraWarnings option).
   *************
   ************* EnergyPlus Warmup Error Summary. During Warmup: 0 Warning; 0 Severe Errors.
   ************* EnergyPlus Sizing Error Summary. During Sizing: 4 Warning; 0 Severe Errors.
   ************* EnergyPlus Completed Successfully-- 79319 Warning; 0 Severe Errors; Elapsed Time=00hr 01min 20.60sec
