Program Version,EnergyPlus, Version 22.2.0-c249759bad, YMD=2023.09.01 14:50,
   ************* Beginning Zone Sizing Calculations
   ** Warning ** ProcessScheduleInput: Schedule:Constant="ALWAYS ON DISCRETE", Schedule Type Limits Name="ONOFF" not found -- will not be validated
   ** Warning ** Foundation:Kiva="KIVA FOUNDATION", no Interior Horizontal Insulation Material Name defined
   **   ~~~   ** Interior Horizontal Insulation Depth will not be used.
   ** Warning ** CheckUsedConstructions: There are 15 nominally unused constructions in input.
   **   ~~~   ** Each Unused construction is shown.
   ************* Construction=INTERIOR FLOOR
   ************* Construction=INTERIOR WINDOW
   ************* Construction=EXTERIOR DOOR
   ************* Construction=INTERIOR DOOR
   ************* Construction=GABLE CONSTRUCTION
   ************* Construction=CRAWL_FLOOR
   ************* Construction=INSULATED PIPE
   ************* Construction=PLAIN PIPE
   ************* Construction=TDD PIPE
   ************* Construction=TDD DOME
   ************* Construction=TDD DIFFUSER
   ************* Construction=CRAWL WALL
   ************* Construction=CEILING-FLOOR-LAYER
   ************* Construction=SLAB CONSTRUCTION W FULL R10 INSULATION
   ************* Construction=SLAB CONSTRUCTION W FULL R5 INSULATION
   ** Warning ** GetDXCoils: Coil:Heating:DX:SingleSpeed="DX_HEATING_COIL" curve values
   **   ~~~   ** ... Defrost Energy Input Ratio Function of Temperature Curve Name = DEFROSTEIR output is not equal to 1.0 (+ or - 10%) at rated conditions.
   **   ~~~   ** ... Curve output at rated conditions = 0.152
   ************* Beginning System Sizing Calculations
   ************* Beginning Plant Sizing Calculations
   ** Warning ** Coil:WaterHeating:AirToWaterHeatPump:Wrapped "HEAT PUMP WATER HEATER EVAPORATOR": Rated air volume flow rate per watt of rated total water heating capacity is out of range
   **   ~~~   ** Min Rated Vol Flow Per Watt=[4.027E-005], Rated Vol Flow Per Watt=[1.386E-004], Max Rated Vol Flow Per Watt=[8.056E-005]. See Input-Output Reference Manual for valid range.
   ** Warning ** Water heater = WATER HEATER TANK:  Recovery Efficiency and Energy Factor could not be calculated during the test for standard ratings
   **   ~~~   ** Setpoint was never recovered and/or heater never turned on
   ** Warning ** Check input. Pump nominal power or motor efficiency is set to 0, for pump=MAINS PRESSURE
   ** Warning ** Output:Meter: invalid Key Name="ELECTRIC_RANGE:INTERIOREQUIPMENT:ELECTRICITY" - not found.
   ** Warning ** Output:Meter: invalid Key Name="ELECTRIC_DRYER:INTERIOREQUIPMENT:ELECTRICITY" - not found.
   ** Warning ** Output:Meter: invalid Key Name="HEATRECOVERY:ELECTRICITY" - not found.
   ** Warning ** Output:Meter: invalid Key Name="HEATING:NATURALGAS" - not found.
   ** Warning ** Output:Meter: invalid Key Name="WATERSYSTEMS:NATURALGAS" - not found.
   ** Warning ** Output:Meter: invalid Key Name="PROPANE:FACILITY" - not found.
   ** Warning ** Output:Meter: invalid Key Name="HEATING:PROPANE" - not found.
   ************* Testing Individual Branch Integrity
   ************* All Branches passed integrity testing
   ************* Testing Individual Supply Air Path Integrity
   ************* All Supply Air Paths passed integrity testing
   ************* Testing Individual Return Air Path Integrity
   ************* All Return Air Paths passed integrity testing
   ************* No node connection errors were found.
   ************* Beginning Simulation
   ** Warning ** AirflowNetwork::Solver::validate_distribution: Heat pump water heater is simulated along with an AirflowNetwork but is not included in the AirflowNetwork.
   ** Warning ** CalcEquipmentFlowRates: "TOTAL HOT WATER LOAD" - Target water temperature is greater than the hot water temperature by (1.63 C)
   **   ~~~   **  Environment=EXTREME_WINTER, at Simulation time=01/06 06:00 - 06:15
   **   ~~~   ** ...target water temperature     = 53.33 C
   **   ~~~   ** ...hot water temperature        = 51.70 C
   **   ~~~   ** ...Target water temperature should be less than or equal to the hot water temperature. Verify temperature setpoints and schedules.
   ** Warning ** SimHVAC: Maximum iterations (20) exceeded for all HVAC loops, at ANNUAL, 01/13 05:53 - 06:00
   **   ~~~   ** The solution for one or more of the Air Loop HVAC systems did not appear to converge
   **   ~~~   ** Air System Named = CENTRAL SYSTEM did not converge for mass flow rate
   **   ~~~   ** Check values should be zero. Most Recent values listed first.
   **   ~~~   ** Demand-to-Supply interface mass flow rate check value iteration history trace: 5.017984E-002,5.017984E-002,5.017984E-002,5.017984E-002,5.017984E-002,5.017984E-002,5.017984E-002,5.017984E-002,5.017984E-002,5.017984E-002,
   **   ~~~   ** Supply-to-demand interface deck 1 mass flow rate check value iteration history trace: 5.017984E-002,5.017984E-002,5.017984E-002,5.017984E-002,5.017984E-002,5.017984E-002,5.017984E-002,5.017984E-002,5.017984E-002,5.017984E-002,
   **   ~~~   ** Air System Named = CENTRAL SYSTEM did not converge for energy
   **   ~~~   ** Check values should be zero. Most Recent values listed first.
   **   ~~~   ** Demand-to-Supply interface energy check value iteration history trace: 999.118007,999.118007,999.118007,999.118007,999.118007,999.118007,999.118007,999.118007,999.118007,999.118006,
   **   ~~~   ** Supply-to-demand interface deck 1 energy check value iteration history trace: 1823.139487,1823.139487,1823.139487,1823.139487,1823.139487,1823.139486,1823.139486,1823.139486,1823.139486,1823.139486,
   ** Warning ** SimHVAC: Maximum iterations (20) exceeded for all HVAC loops, at ANNUAL, 01/23 13:45 - 13:52
   **   ~~~   ** The solution for one or more of the Air Loop HVAC systems did not appear to converge
   **   ~~~   ** Air System Named = CENTRAL SYSTEM did not converge for mass flow rate
   **   ~~~   ** Check values should be zero. Most Recent values listed first.
   **   ~~~   ** Demand-to-Supply interface mass flow rate check value iteration history trace: 5.462741E-002,5.462741E-002,5.462741E-002,5.462741E-002,5.462741E-002,5.462741E-002,5.462741E-002,5.462741E-002,5.462741E-002,5.462741E-002,
   **   ~~~   ** Supply-to-demand interface deck 1 mass flow rate check value iteration history trace: 5.462741E-002,5.462741E-002,5.462741E-002,5.462741E-002,5.462741E-002,5.462741E-002,5.462741E-002,5.462741E-002,5.462741E-002,5.462741E-002,
   **   ~~~   ** Air System Named = CENTRAL SYSTEM did not converge for energy
   **   ~~~   ** Check values should be zero. Most Recent values listed first.
   **   ~~~   ** Demand-to-Supply interface energy check value iteration history trace: 1080.265737,1080.265737,1080.265737,1080.265737,1080.265737,1080.265737,1080.265737,1080.265737,1080.265737,1080.265737,
   **   ~~~   ** Supply-to-demand interface deck 1 energy check value iteration history trace: 1991.487624,1991.487624,1991.487624,1991.487624,1991.487623,1991.487623,1991.487623,1991.487623,1991.487623,1991.487623,
   ** Warning ** SimHVAC: Maximum iterations (20) exceeded for all HVAC loops, at ANNUAL, 03/05 08:45 - 08:47
   **   ~~~   ** The solution for one or more of the Air Loop HVAC systems did not appear to converge
   **   ~~~   ** Air System Named = CENTRAL SYSTEM did not converge for mass flow rate
   **   ~~~   ** Check values should be zero. Most Recent values listed first.
   **   ~~~   ** Demand-to-Supply interface mass flow rate check value iteration history trace: 8.387839E-002,8.387839E-002,8.387839E-002,8.387839E-002,8.387839E-002,8.387839E-002,8.387839E-002,8.387839E-002,8.387839E-002,8.387839E-002,
   **   ~~~   ** Supply-to-demand interface deck 1 mass flow rate check value iteration history trace: 8.387839E-002,8.387839E-002,8.387839E-002,8.387839E-002,8.387839E-002,8.387839E-002,8.387839E-002,8.387839E-002,8.387839E-002,8.387839E-002,
   **   ~~~   ** Air System Named = CENTRAL SYSTEM did not converge for energy
   **   ~~~   ** Check values should be zero. Most Recent values listed first.
   **   ~~~   ** Demand-to-Supply interface energy check value iteration history trace: 1662.229462,1662.229462,1662.229462,1662.229462,1662.229462,1662.229462,1662.229462,1662.229462,1662.229462,1662.229462,
   **   ~~~   ** Supply-to-demand interface deck 1 energy check value iteration history trace: 2948.608926,2948.608926,2948.608926,2948.608926,2948.608926,2948.608925,2948.608925,2948.608925,2948.608925,2948.608925,
   ** Warning ** SimHVAC: Maximum iterations (20) exceeded for all HVAC loops, at ANNUAL, 04/06 20:00 - 20:15
   **   ~~~   ** The solution for one or more of the Air Loop HVAC systems did not appear to converge
   **   ~~~   ** Air System Named = CENTRAL SYSTEM did not converge for mass flow rate
   **   ~~~   ** Check values should be zero. Most Recent values listed first.
   **   ~~~   ** Demand-to-Supply interface mass flow rate check value iteration history trace: 5.123836E-002,5.123836E-002,5.123836E-002,5.123836E-002,5.123836E-002,5.123836E-002,5.123836E-002,5.123836E-002,5.123836E-002,5.123836E-002,
   **   ~~~   ** Supply-to-demand interface deck 1 mass flow rate check value iteration history trace: 5.123836E-002,5.123836E-002,5.123836E-002,5.123836E-002,5.123836E-002,5.123836E-002,5.123836E-002,5.123836E-002,5.123836E-002,5.123836E-002,
   **   ~~~   ** Air System Named = CENTRAL SYSTEM did not converge for energy
   **   ~~~   ** Check values should be zero. Most Recent values listed first.
   **   ~~~   ** Demand-to-Supply interface energy check value iteration history trace: 1200.619924,1200.619924,1200.619924,1200.619925,1200.619925,1200.619925,1200.619925,1200.619926,1200.619926,1200.619926,
   **   ~~~   ** Supply-to-demand interface deck 1 energy check value iteration history trace: 445.486563,445.486563,445.486563,445.486563,445.486563,445.486563,445.486563,445.486563,445.486563,445.486563,
   ** Warning ** SimHVAC: Maximum iterations (20) exceeded for all HVAC loops, at ANNUAL, 04/11 07:38 - 07:45
   **   ~~~   ** The solution for one or more of the Air Loop HVAC systems did not appear to converge
   **   ~~~   ** Air System Named = CENTRAL SYSTEM did not converge for mass flow rate
   **   ~~~   ** Check values should be zero. Most Recent values listed first.
   **   ~~~   ** Demand-to-Supply interface mass flow rate check value iteration history trace: 0.166539,0.166539,0.166539,0.166539,0.166539,0.166539,0.166539,0.166539,0.166539,0.166539,
   **   ~~~   ** Supply-to-demand interface deck 1 mass flow rate check value iteration history trace: 0.166539,0.166539,0.166539,0.166539,0.166539,0.166539,0.166539,0.166539,0.166539,0.166539,
   **   ~~~   ** Air System Named = CENTRAL SYSTEM did not converge for energy
   **   ~~~   ** Check values should be zero. Most Recent values listed first.
   **   ~~~   ** Demand-to-Supply interface energy check value iteration history trace: 3929.767599,3929.767600,3929.767600,3929.767601,3929.767602,3929.767603,3929.767604,3929.767605,3929.767606,3929.767607,
   **   ~~~   ** Supply-to-demand interface deck 1 energy check value iteration history trace: 2151.444364,2151.444365,2151.444365,2151.444366,2151.444366,2151.444367,2151.444367,2151.444368,2151.444368,2151.444369,
   ** Warning ** SimHVAC: Maximum iterations (20) exceeded for all HVAC loops, at ANNUAL, 04/13 17:25 - 17:30
   **   ~~~   ** The solution for one or more of the Air Loop HVAC systems did not appear to converge
   **   ~~~   ** Air System Named = CENTRAL SYSTEM did not converge for mass flow rate
   **   ~~~   ** Check values should be zero. Most Recent values listed first.
   **   ~~~   ** Demand-to-Supply interface mass flow rate check value iteration history trace: 0.298993,0.298993,0.298993,0.298993,0.298993,0.298993,0.298993,0.298993,0.298993,0.298993,
   **   ~~~   ** Supply-to-demand interface deck 1 mass flow rate check value iteration history trace: 0.298993,0.298993,0.298993,0.298993,0.298993,0.298993,0.298993,0.298993,0.298993,0.298993,
   **   ~~~   ** Air System Named = CENTRAL SYSTEM did not converge for energy
   **   ~~~   ** Check values should be zero. Most Recent values listed first.
   **   ~~~   ** Demand-to-Supply interface energy check value iteration history trace: 7146.056794,7146.056795,7146.056795,7146.056796,7146.056797,7146.056797,7146.056798,7146.056799,7146.056799,7146.056800,
   **   ~~~   ** Supply-to-demand interface deck 1 energy check value iteration history trace: 4007.705156,4007.705157,4007.705157,4007.705157,4007.705158,4007.705158,4007.705159,4007.705159,4007.705159,4007.705160,
   ** Warning ** SimHVAC: Maximum iterations (20) exceeded for all HVAC loops, at ANNUAL, 04/13 19:53 - 20:00
   **   ~~~   ** The solution for one or more of the Air Loop HVAC systems did not appear to converge
   **   ~~~   ** Air System Named = CENTRAL SYSTEM did not converge for mass flow rate
   **   ~~~   ** Check values should be zero. Most Recent values listed first.
   **   ~~~   ** Demand-to-Supply interface mass flow rate check value iteration history trace: 0.229697,0.229697,0.229697,0.229697,0.229697,0.229697,0.229697,0.229697,0.229697,0.229697,
   **   ~~~   ** Supply-to-demand interface deck 1 mass flow rate check value iteration history trace: 0.229697,0.229697,0.229697,0.229697,0.229697,0.229697,0.229697,0.229697,0.229697,0.229697,
   **   ~~~   ** Air System Named = CENTRAL SYSTEM did not converge for energy
   **   ~~~   ** Check values should be zero. Most Recent values listed first.
   **   ~~~   ** Demand-to-Supply interface energy check value iteration history trace: 5487.972859,5487.972859,5487.972860,5487.972860,5487.972861,5487.972861,5487.972862,5487.972862,5487.972863,5487.972863,
   **   ~~~   ** Supply-to-demand interface deck 1 energy check value iteration history trace: 3002.380225,3002.380226,3002.380226,3002.380226,3002.380226,3002.380227,3002.380227,3002.380227,3002.380227,3002.380228,
   ** Warning ** SimHVAC: Maximum iterations (20) exceeded for all HVAC loops, at ANNUAL, 04/16 11:11 - 11:15
   **   ~~~   ** The solution for one or more of the Air Loop HVAC systems did not appear to converge
   **   ~~~   ** Air System Named = CENTRAL SYSTEM did not converge for mass flow rate
   **   ~~~   ** Check values should be zero. Most Recent values listed first.
   **   ~~~   ** Demand-to-Supply interface mass flow rate check value iteration history trace: 0.290051,0.290051,0.290051,0.290051,0.290051,0.290051,0.290051,0.290051,0.290051,0.290051,
   **   ~~~   ** Supply-to-demand interface deck 1 mass flow rate check value iteration history trace: 0.290051,0.290051,0.290051,0.290051,0.290051,0.290051,0.290051,0.290051,0.290051,0.290051,
   **   ~~~   ** Air System Named = CENTRAL SYSTEM did not converge for energy
   **   ~~~   ** Check values should be zero. Most Recent values listed first.
   **   ~~~   ** Demand-to-Supply interface energy check value iteration history trace: 6909.413260,6909.413261,6909.413262,6909.413263,6909.413264,6909.413264,6909.413265,6909.413266,6909.413267,6909.413268,
   **   ~~~   ** Supply-to-demand interface deck 1 energy check value iteration history trace: 3272.823775,3272.823776,3272.823776,3272.823777,3272.823777,3272.823778,3272.823778,3272.823779,3272.823779,3272.823779,
   ** Warning ** SimHVAC: Maximum iterations (20) exceeded for all HVAC loops, at ANNUAL, 11/28 18:45 - 19:00
   **   ~~~   ** The solution for one or more of the Air Loop HVAC systems did not appear to converge
   **   ~~~   ** Air System Named = CENTRAL SYSTEM did not converge for mass flow rate
   **   ~~~   ** Check values should be zero. Most Recent values listed first.
   **   ~~~   ** Demand-to-Supply interface mass flow rate check value iteration history trace: 2.713450E-002,2.713450E-002,2.713450E-002,2.713450E-002,2.713450E-002,2.713450E-002,2.713450E-002,2.713450E-002,2.713450E-002,2.713450E-002,
   **   ~~~   ** Supply-to-demand interface deck 1 mass flow rate check value iteration history trace: 2.713450E-002,2.713450E-002,2.713450E-002,2.713450E-002,2.713450E-002,2.713450E-002,2.713450E-002,2.713450E-002,2.713450E-002,2.713450E-002,
   **   ~~~   ** Air System Named = CENTRAL SYSTEM did not converge for energy
   **   ~~~   ** Check values should be zero. Most Recent values listed first.
   **   ~~~   ** Demand-to-Supply interface energy check value iteration history trace: 634.992431,634.992432,634.992432,634.992432,634.992432,634.992432,634.992432,634.992432,634.992432,634.992432,
   **   ~~~   ** Supply-to-demand interface deck 1 energy check value iteration history trace: 264.363172,264.363172,264.363172,264.363172,264.363172,264.363172,264.363172,264.363173,264.363173,264.363173,
   ** Warning ** SimHVAC: Maximum iterations (20) exceeded for all HVAC loops, at ANNUAL, 11/29 21:08 - 21:15
   **   ~~~   ** The solution for one or more of the Air Loop HVAC systems did not appear to converge
   **   ~~~   ** Air System Named = CENTRAL SYSTEM did not converge for mass flow rate
   **   ~~~   ** Check values should be zero. Most Recent values listed first.
   **   ~~~   ** Demand-to-Supply interface mass flow rate check value iteration history trace: 0.237413,0.237413,0.237413,0.237413,0.237413,0.237413,0.237413,0.237413,0.237413,0.237413,
   **   ~~~   ** Supply-to-demand interface deck 1 mass flow rate check value iteration history trace: 0.237413,0.237413,0.237413,0.237413,0.237413,0.237413,0.237413,0.237413,0.237413,0.237413,
   **   ~~~   ** Air System Named = CENTRAL SYSTEM did not converge for energy
   **   ~~~   ** Check values should be zero. Most Recent values listed first.
   **   ~~~   ** Demand-to-Supply interface energy check value iteration history trace: 5743.210936,5743.210937,5743.210938,5743.210940,5743.210941,5743.210942,5743.210944,5743.210945,5743.210947,5743.210948,
   **   ~~~   ** Supply-to-demand interface deck 1 energy check value iteration history trace: 2854.674980,2854.674981,2854.674982,2854.674982,2854.674983,2854.674984,2854.674984,2854.674985,2854.674986,2854.674986,
   ** Warning ** SimHVAC: Maximum iterations (20) exceeded for all HVAC loops, at ANNUAL, 12/22 16:00 - 16:15
   **   ~~~   ** The solution for one or more of the Air Loop HVAC systems did not appear to converge
   **   ~~~   ** Air System Named = CENTRAL SYSTEM did not converge for mass flow rate
   **   ~~~   ** Check values should be zero. Most Recent values listed first.
   **   ~~~   ** Demand-to-Supply interface mass flow rate check value iteration history trace: 6.040794E-002,6.040794E-002,6.040794E-002,6.040794E-002,6.040794E-002,6.040794E-002,6.040794E-002,6.040794E-002,6.040794E-002,6.040794E-002,
   **   ~~~   ** Supply-to-demand interface deck 1 mass flow rate check value iteration history trace: 6.040794E-002,6.040794E-002,6.040794E-002,6.040794E-002,6.040794E-002,6.040794E-002,6.040794E-002,6.040794E-002,6.040794E-002,6.040794E-002,
   **   ~~~   ** Air System Named = CENTRAL SYSTEM did not converge for energy
   **   ~~~   ** Check values should be zero. Most Recent values listed first.
   **   ~~~   ** Demand-to-Supply interface energy check value iteration history trace: 1197.310488,1197.310488,1197.310488,1197.310488,1197.310488,1197.310488,1197.310488,1197.310488,1197.310488,1197.310488,
   **   ~~~   ** Supply-to-demand interface deck 1 energy check value iteration history trace: 2164.816077,2164.816077,2164.816077,2164.816077,2164.816077,2164.816077,2164.816076,2164.816076,2164.816076,2164.816076,
   ************* Simulation Error Summary *************
   ** Warning ** The following Report Variables were requested but not generated -- check.rdd file
   **   ~~~   ** Either the IDF did not contain these elements, the variable name is misspelled,
   **   ~~~   ** or the requested variable is an advanced output which requires Output : Diagnostics, DisplayAdvancedReportVariables;
   ************* Key=*, VarName=BASEBOARD TOTAL HEATING ENERGY, Frequency=
   ************* Key=*, VarName=WATER HEATER NATURALGAS ENERGY, Frequency=
   ************* Key=*, VarName=COOLING COIL TOTAL HEATING ENERGY, Frequency=
   ************* There are 34 unused schedules in input.
   ************* There are 388 unused week schedules in input.
   ************* There are 396 unused day schedules in input.
   ************* Use Output:Diagnostics,DisplayUnusedSchedules; to see them.
   *************
   ************* ===== Recurring Error Summary =====
   ************* The following recurring error messages occurred.
   *************
   *************  ** Warning ** "TOTAL HOT WATER LOAD" - Target water temperature should be less than or equal to the hot water temperature error continues...
   *************  **   ~~~   **   This error occurred 115765 total times;
   *************  **   ~~~   **   during Warmup 0 times;
   *************  **   ~~~   **   during Sizing 0 times.
   *************  **   ~~~   **   Max=8.869727  Min=2.371578E-005
   *************
   *************
   ************* ===== Final Error Summary =====
   ************* The following error categories occurred.  Consider correcting or noting.
   ************* Nominally Unused Constructions
   ************* ..The nominally unused constructions warning is provided to alert you to potential conditions that can cause
   ************* ..extra time during simulation. Each construction is calculated by the algorithm indicated in the HeatBalanceAlgorithm
   ************* ..object. You may remove the constructions indicated (when you use the DisplayExtraWarnings option).
   *************
   ************* EnergyPlus Warmup Error Summary. During Warmup: 1 Warning; 0 Severe Errors.
   ************* EnergyPlus Sizing Error Summary. During Sizing: 4 Warning; 0 Severe Errors.
   ************* EnergyPlus Completed Successfully-- 115793 Warning; 0 Severe Errors; Elapsed Time=00hr 06min  3.99sec
