Program Version,EnergyPlus, Version 22.2.0-c249759bad, YMD=2023.09.01 19:56,
   ************* Beginning Zone Sizing Calculations
   ** Warning ** ProcessScheduleInput: Schedule:Constant="ALWAYS ON DISCRETE", Schedule Type Limits Name="ONOFF" not found -- will not be validated
   ** Warning ** Foundation:Kiva="KIVA FOUNDATION", no Interior Horizontal Insulation Material Name defined
   **   ~~~   ** Interior Horizontal Insulation Depth will not be used.
   ** Warning ** CheckUsedConstructions: There are 15 nominally unused constructions in input.
   **   ~~~   ** Each Unused construction is shown.
   ************* Construction=INTERIOR FLOOR
   ************* Construction=INTERIOR WINDOW
   ************* Construction=EXTERIOR DOOR
   ************* Construction=INTERIOR DOOR
   ************* Construction=GABLE CONSTRUCTION
   ************* Construction=CRAWL_FLOOR
   ************* Construction=INSULATED PIPE
   ************* Construction=PLAIN PIPE
   ************* Construction=TDD PIPE
   ************* Construction=TDD DOME
   ************* Construction=TDD DIFFUSER
   ************* Construction=CRAWL WALL
   ************* Construction=CEILING-FLOOR-LAYER
   ************* Construction=SLAB CONSTRUCTION W FULL R10 INSULATION
   ************* Construction=SLAB CONSTRUCTION W FULL R5 INSULATION
   ** Warning ** GetDXCoils: Coil:Heating:DX:SingleSpeed="DX_HEATING_COIL" curve values
   **   ~~~   ** ... Defrost Energy Input Ratio Function of Temperature Curve Name = DEFROSTEIR output is not equal to 1.0 (+ or - 10%) at rated conditions.
   **   ~~~   ** ... Curve output at rated conditions = 0.152
   ************* Beginning System Sizing Calculations
   ************* Beginning Plant Sizing Calculations
   ** Warning ** SizeDXCoil Coil:Cooling:DX:SingleSpeed DX_COOLING_COIL
   **   ~~~   ** ...Gross Rated Total Cooling Capacity [W] will be limited by the maximum rated volume flow per rated total capacity ratio.
   **   ~~~   ** ...DX coil volume flow rate ( m3/s ) = 0.431081
   **   ~~~   ** ...Requested capacity ( W ) = 6731.606
   **   ~~~   ** ...Requested flow/capacity ratio ( m3/s/W ) = 6.403E-005
   **   ~~~   ** ...Maximum flow/capacity ratio ( m3/s/W ) = 6.041E-005
   **   ~~~   ** ...Adjusted capacity ( W ) = 7135.929
   ** Warning ** Coil:WaterHeating:AirToWaterHeatPump:Wrapped "HEAT PUMP WATER HEATER EVAPORATOR": Rated air volume flow rate per watt of rated total water heating capacity is out of range
   **   ~~~   ** Min Rated Vol Flow Per Watt=[4.027E-005], Rated Vol Flow Per Watt=[1.510E-004], Max Rated Vol Flow Per Watt=[8.056E-005]. See Input-Output Reference Manual for valid range.
   ************* SizeFan: : Potential issue with equipment sizing for Fan:OnOff HEAT PUMP WATER HEATER FAN
   **   ~~~   ** User-Specified Maximum Flow Rate [m3/s] = 0.22653
   **   ~~~   ** differs from Design Size Maximum Flow Rate [m3/s] = 7.55250E-002
   **   ~~~   ** This may, or may not, indicate mismatched component sizes.
   **   ~~~   ** Verify that the value entered is intended and is consistent with other components.
   ** Warning ** Water heater = WATER HEATER TANK:  Recovery Efficiency and Energy Factor could not be calculated during the test for standard ratings
   **   ~~~   ** Setpoint was never recovered and/or heater never turned on
   ** Warning ** Check input. Pump nominal power or motor efficiency is set to 0, for pump=MAINS PRESSURE
   ** Warning ** Output:Meter: invalid Key Name="ELECTRIC_RANGE:INTERIOREQUIPMENT:ELECTRICITY" - not found.
   ** Warning ** Output:Meter: invalid Key Name="ELECTRIC_DRYER:INTERIOREQUIPMENT:ELECTRICITY" - not found.
   ** Warning ** Output:Meter: invalid Key Name="HEATRECOVERY:ELECTRICITY" - not found.
   ** Warning ** Output:Meter: invalid Key Name="HEATING:NATURALGAS" - not found.
   ** Warning ** Output:Meter: invalid Key Name="WATERSYSTEMS:NATURALGAS" - not found.
   ** Warning ** Output:Meter: invalid Key Name="PROPANE:FACILITY" - not found.
   ** Warning ** Output:Meter: invalid Key Name="HEATING:PROPANE" - not found.
   ************* Testing Individual Branch Integrity
   ************* All Branches passed integrity testing
   ************* Testing Individual Supply Air Path Integrity
   ************* All Supply Air Paths passed integrity testing
   ************* Testing Individual Return Air Path Integrity
   ************* All Return Air Paths passed integrity testing
   ************* No node connection errors were found.
   ************* Beginning Simulation
   ** Warning ** AirflowNetwork::Solver::validate_distribution: Heat pump water heater is simulated along with an AirflowNetwork but is not included in the AirflowNetwork.
   ** Warning ** CalcEquipmentFlowRates: "TOTAL HOT WATER LOAD" - Target water temperature is greater than the hot water temperature by (3.59 C)
   **   ~~~   **  Environment=EXTREME_WINTER, at Simulation time=01/15 06:00 - 06:15
   **   ~~~   ** ...target water temperature     = 53.33 C
   **   ~~~   ** ...hot water temperature        = 49.74 C
   **   ~~~   ** ...Target water temperature should be less than or equal to the hot water temperature. Verify temperature setpoints and schedules.
   ** Warning ** SimHVAC: Maximum iterations (20) exceeded for all HVAC loops, at EXTREME_WINTER, 01/16 13:35 - 13:40
   **   ~~~   ** The solution for one or more of the Air Loop HVAC systems did not appear to converge
   **   ~~~   ** Air System Named = CENTRAL SYSTEM did not converge for mass flow rate
   **   ~~~   ** Check values should be zero. Most Recent values listed first.
   **   ~~~   ** Demand-to-Supply interface mass flow rate check value iteration history trace: 9.154026E-002,9.154026E-002,9.154026E-002,9.154026E-002,9.154026E-002,9.154026E-002,9.154026E-002,9.154026E-002,9.154026E-002,9.154026E-002,
   **   ~~~   ** Supply-to-demand interface deck 1 mass flow rate check value iteration history trace: 9.154026E-002,9.154026E-002,9.154026E-002,9.154026E-002,9.154026E-002,9.154026E-002,9.154026E-002,9.154026E-002,9.154026E-002,9.154026E-002,
   **   ~~~   ** Air System Named = CENTRAL SYSTEM did not converge for energy
   **   ~~~   ** Check values should be zero. Most Recent values listed first.
   **   ~~~   ** Demand-to-Supply interface energy check value iteration history trace: 1809.090238,1809.090238,1809.090238,1809.090238,1809.090237,1809.090237,1809.090237,1809.090237,1809.090237,1809.090237,
   **   ~~~   ** Supply-to-demand interface deck 1 energy check value iteration history trace: 2797.389932,2797.389932,2797.389932,2797.389932,2797.389931,2797.389931,2797.389931,2797.389931,2797.389931,2797.389930,
   ** Warning ** SimHVAC: Maximum iterations (20) exceeded for all HVAC loops, at EXTREME_WINTER, 01/18 13:30 - 13:45
   **   ~~~   ** The solution for one or more of the Air Loop HVAC systems did not appear to converge
   **   ~~~   ** Air System Named = CENTRAL SYSTEM did not converge for mass flow rate
   **   ~~~   ** Check values should be zero. Most Recent values listed first.
   **   ~~~   ** Demand-to-Supply interface mass flow rate check value iteration history trace: 7.872610E-002,7.872610E-002,7.872610E-002,7.872610E-002,7.872610E-002,7.872610E-002,7.872610E-002,7.872610E-002,7.872610E-002,7.872610E-002,
   **   ~~~   ** Supply-to-demand interface deck 1 mass flow rate check value iteration history trace: 7.872610E-002,7.872610E-002,7.872610E-002,7.872610E-002,7.872610E-002,7.872610E-002,7.872610E-002,7.872610E-002,7.872610E-002,7.872610E-002,
   **   ~~~   ** Air System Named = CENTRAL SYSTEM did not converge for energy
   **   ~~~   ** Check values should be zero. Most Recent values listed first.
   **   ~~~   ** Demand-to-Supply interface energy check value iteration history trace: 1527.950175,1527.950175,1527.950175,1527.950175,1527.950175,1527.950174,1527.950174,1527.950174,1527.950174,1527.950174,
   **   ~~~   ** Supply-to-demand interface deck 1 energy check value iteration history trace: 2366.078254,2366.078254,2366.078254,2366.078254,2366.078253,2366.078253,2366.078253,2366.078253,2366.078253,2366.078253,
   ** Warning ** SimHVAC: Maximum iterations (20) exceeded for all HVAC loops, at ANNUAL, 01/04 18:45 - 19:00
   **   ~~~   ** The solution for one or more of the Air Loop HVAC systems did not appear to converge
   **   ~~~   ** Air System Named = CENTRAL SYSTEM did not converge for mass flow rate
   **   ~~~   ** Check values should be zero. Most Recent values listed first.
   **   ~~~   ** Demand-to-Supply interface mass flow rate check value iteration history trace: 7.479761E-002,7.479761E-002,7.479761E-002,7.479761E-002,7.479761E-002,7.479761E-002,7.479761E-002,7.479761E-002,7.479761E-002,7.479761E-002,
   **   ~~~   ** Supply-to-demand interface deck 1 mass flow rate check value iteration history trace: 7.479761E-002,7.479761E-002,7.479761E-002,7.479761E-002,7.479761E-002,7.479761E-002,7.479761E-002,7.479761E-002,7.479761E-002,7.479761E-002,
   **   ~~~   ** Air System Named = CENTRAL SYSTEM did not converge for energy
   **   ~~~   ** Check values should be zero. Most Recent values listed first.
   **   ~~~   ** Demand-to-Supply interface energy check value iteration history trace: 1480.250419,1480.250419,1480.250419,1480.250419,1480.250419,1480.250419,1480.250418,1480.250418,1480.250418,1480.250418,
   **   ~~~   ** Supply-to-demand interface deck 1 energy check value iteration history trace: 2298.787149,2298.787149,2298.787148,2298.787148,2298.787148,2298.787148,2298.787148,2298.787148,2298.787148,2298.787147,
   ** Warning ** SimHVAC: Maximum iterations (20) exceeded for all HVAC loops, at ANNUAL, 01/17 14:00 - 14:05
   **   ~~~   ** The solution for one or more of the Air Loop HVAC systems did not appear to converge
   **   ~~~   ** Air System Named = CENTRAL SYSTEM did not converge for mass flow rate
   **   ~~~   ** Check values should be zero. Most Recent values listed first.
   **   ~~~   ** Demand-to-Supply interface mass flow rate check value iteration history trace: 9.510275E-002,9.510275E-002,9.510275E-002,9.510275E-002,9.510275E-002,9.510275E-002,9.510275E-002,9.510275E-002,9.510275E-002,9.510275E-002,
   **   ~~~   ** Supply-to-demand interface deck 1 mass flow rate check value iteration history trace: 9.510275E-002,9.510275E-002,9.510275E-002,9.510275E-002,9.510275E-002,9.510275E-002,9.510275E-002,9.510275E-002,9.510275E-002,9.510275E-002,
   **   ~~~   ** Air System Named = CENTRAL SYSTEM did not converge for energy
   **   ~~~   ** Check values should be zero. Most Recent values listed first.
   **   ~~~   ** Demand-to-Supply interface energy check value iteration history trace: 1884.591991,1884.591991,1884.591991,1884.591991,1884.591991,1884.591990,1884.591990,1884.591990,1884.591990,1884.591990,
   **   ~~~   ** Supply-to-demand interface deck 1 energy check value iteration history trace: 2894.692620,2894.692620,2894.692620,2894.692619,2894.692619,2894.692619,2894.692619,2894.692619,2894.692619,2894.692618,
   ** Warning ** SimHVAC: Maximum iterations (20) exceeded for all HVAC loops, at ANNUAL, 01/30 18:11 - 18:15
   **   ~~~   ** The solution for one or more of the Air Loop HVAC systems did not appear to converge
   **   ~~~   ** Air System Named = CENTRAL SYSTEM did not converge for mass flow rate
   **   ~~~   ** Check values should be zero. Most Recent values listed first.
   **   ~~~   ** Demand-to-Supply interface mass flow rate check value iteration history trace: 9.677917E-002,9.677917E-002,9.677917E-002,9.677917E-002,9.677917E-002,9.677917E-002,9.677917E-002,9.677917E-002,9.677917E-002,9.677917E-002,
   **   ~~~   ** Supply-to-demand interface deck 1 mass flow rate check value iteration history trace: 9.677917E-002,9.677917E-002,9.677917E-002,9.677917E-002,9.677917E-002,9.677917E-002,9.677917E-002,9.677917E-002,9.677917E-002,9.677917E-002,
   **   ~~~   ** Air System Named = CENTRAL SYSTEM did not converge for energy
   **   ~~~   ** Check values should be zero. Most Recent values listed first.
   **   ~~~   ** Demand-to-Supply interface energy check value iteration history trace: 1907.085162,1907.085162,1907.085162,1907.085162,1907.085161,1907.085161,1907.085161,1907.085161,1907.085161,1907.085161,
   **   ~~~   ** Supply-to-demand interface deck 1 energy check value iteration history trace: 2888.846589,2888.846589,2888.846588,2888.846588,2888.846588,2888.846588,2888.846588,2888.846587,2888.846587,2888.846587,
   ** Warning ** SimHVAC: Maximum iterations (20) exceeded for all HVAC loops, at ANNUAL, 02/01 09:45 - 09:52
   **   ~~~   ** The solution for one or more of the Air Loop HVAC systems did not appear to converge
   **   ~~~   ** Air System Named = CENTRAL SYSTEM did not converge for mass flow rate
   **   ~~~   ** Check values should be zero. Most Recent values listed first.
   **   ~~~   ** Demand-to-Supply interface mass flow rate check value iteration history trace: 5.855633E-002,5.855633E-002,5.855633E-002,5.855633E-002,5.855633E-002,5.855633E-002,5.855633E-002,5.855633E-002,5.855633E-002,5.855633E-002,
   **   ~~~   ** Supply-to-demand interface deck 1 mass flow rate check value iteration history trace: 5.855633E-002,5.855633E-002,5.855633E-002,5.855633E-002,5.855633E-002,5.855633E-002,5.855633E-002,5.855633E-002,5.855633E-002,5.855633E-002,
   **   ~~~   ** Air System Named = CENTRAL SYSTEM did not converge for energy
   **   ~~~   ** Check values should be zero. Most Recent values listed first.
   **   ~~~   ** Demand-to-Supply interface energy check value iteration history trace: 1160.309096,1160.309096,1160.309096,1160.309096,1160.309096,1160.309096,1160.309096,1160.309096,1160.309096,1160.309096,
   **   ~~~   ** Supply-to-demand interface deck 1 energy check value iteration history trace: 2020.608516,2020.608516,2020.608516,2020.608516,2020.608516,2020.608516,2020.608516,2020.608516,2020.608516,2020.608516,
   ** Warning ** SimHVAC: Maximum iterations (20) exceeded for all HVAC loops, at ANNUAL, 02/15 16:30 - 16:45
   **   ~~~   ** The solution for one or more of the Air Loop HVAC systems did not appear to converge
   **   ~~~   ** Air System Named = CENTRAL SYSTEM did not converge for mass flow rate
   **   ~~~   ** Check values should be zero. Most Recent values listed first.
   **   ~~~   ** Demand-to-Supply interface mass flow rate check value iteration history trace: 9.567207E-002,9.567207E-002,9.567207E-002,9.567207E-002,9.567207E-002,9.567207E-002,9.567207E-002,9.567207E-002,9.567207E-002,9.567207E-002,
   **   ~~~   ** Supply-to-demand interface deck 1 mass flow rate check value iteration history trace: 9.567207E-002,9.567207E-002,9.567207E-002,9.567207E-002,9.567207E-002,9.567207E-002,9.567207E-002,9.567207E-002,9.567207E-002,9.567207E-002,
   **   ~~~   ** Air System Named = CENTRAL SYSTEM did not converge for energy
   **   ~~~   ** Check values should be zero. Most Recent values listed first.
   **   ~~~   ** Demand-to-Supply interface energy check value iteration history trace: 1891.215620,1891.215620,1891.215620,1891.215620,1891.215619,1891.215619,1891.215619,1891.215619,1891.215619,1891.215619,
   **   ~~~   ** Supply-to-demand interface deck 1 energy check value iteration history trace: 2995.673299,2995.673299,2995.673298,2995.673298,2995.673298,2995.673298,2995.673298,2995.673297,2995.673297,2995.673297,
   ** Warning ** SimHVAC: Maximum iterations (20) exceeded for all HVAC loops, at ANNUAL, 02/15 23:00 - 23:15
   **   ~~~   ** The solution for one or more of the Air Loop HVAC systems did not appear to converge
   **   ~~~   ** Air System Named = CENTRAL SYSTEM did not converge for mass flow rate
   **   ~~~   ** Check values should be zero. Most Recent values listed first.
   **   ~~~   ** Demand-to-Supply interface mass flow rate check value iteration history trace: 7.360996E-002,7.360996E-002,7.360996E-002,7.360996E-002,7.360996E-002,7.360996E-002,7.360996E-002,7.360996E-002,7.360996E-002,7.360996E-002,
   **   ~~~   ** Supply-to-demand interface deck 1 mass flow rate check value iteration history trace: 7.360996E-002,7.360996E-002,7.360996E-002,7.360996E-002,7.360996E-002,7.360996E-002,7.360996E-002,7.360996E-002,7.360996E-002,7.360996E-002,
   **   ~~~   ** Air System Named = CENTRAL SYSTEM did not converge for energy
   **   ~~~   ** Check values should be zero. Most Recent values listed first.
   **   ~~~   ** Demand-to-Supply interface energy check value iteration history trace: 1373.746912,1373.746912,1373.746912,1373.746912,1373.746912,1373.746912,1373.746912,1373.746912,1373.746912,1373.746912,
   **   ~~~   ** Supply-to-demand interface deck 1 energy check value iteration history trace: 2168.155863,2168.155863,2168.155862,2168.155862,2168.155862,2168.155862,2168.155862,2168.155862,2168.155862,2168.155862,
   ** Warning ** SimHVAC: Maximum iterations (20) exceeded for all HVAC loops, at ANNUAL, 02/20 18:30 - 18:45
   **   ~~~   ** The solution for one or more of the Air Loop HVAC systems did not appear to converge
   **   ~~~   ** Air System Named = CENTRAL SYSTEM did not converge for mass flow rate
   **   ~~~   ** Check values should be zero. Most Recent values listed first.
   **   ~~~   ** Demand-to-Supply interface mass flow rate check value iteration history trace: 8.966020E-002,8.966020E-002,8.966020E-002,8.966020E-002,8.966020E-002,8.966020E-002,8.966020E-002,8.966020E-002,8.966020E-002,8.966020E-002,
   **   ~~~   ** Supply-to-demand interface deck 1 mass flow rate check value iteration history trace: 8.966020E-002,8.966020E-002,8.966020E-002,8.966020E-002,8.966020E-002,8.966020E-002,8.966020E-002,8.966020E-002,8.966020E-002,8.966020E-002,
   **   ~~~   ** Air System Named = CENTRAL SYSTEM did not converge for energy
   **   ~~~   ** Check values should be zero. Most Recent values listed first.
   **   ~~~   ** Demand-to-Supply interface energy check value iteration history trace: 1777.082286,1777.082286,1777.082286,1777.082286,1777.082286,1777.082286,1777.082286,1777.082286,1777.082285,1777.082285,
   **   ~~~   ** Supply-to-demand interface deck 1 energy check value iteration history trace: 2707.563361,2707.563361,2707.563360,2707.563360,2707.563360,2707.563360,2707.563360,2707.563359,2707.563359,2707.563359,
   ** Warning ** SimHVAC: Maximum iterations (20) exceeded for all HVAC loops, at ANNUAL, 02/25 10:34 - 10:36
   **   ~~~   ** The solution for one or more of the Air Loop HVAC systems did not appear to converge
   **   ~~~   ** Air System Named = CENTRAL SYSTEM did not converge for mass flow rate
   **   ~~~   ** Check values should be zero. Most Recent values listed first.
   **   ~~~   ** Demand-to-Supply interface mass flow rate check value iteration history trace: 8.697299E-002,8.697299E-002,8.697299E-002,8.697299E-002,8.697299E-002,8.697299E-002,8.697299E-002,8.697299E-002,8.697299E-002,8.697299E-002,
   **   ~~~   ** Supply-to-demand interface deck 1 mass flow rate check value iteration history trace: 8.697299E-002,8.697299E-002,8.697299E-002,8.697299E-002,8.697299E-002,8.697299E-002,8.697299E-002,8.697299E-002,8.697299E-002,8.697299E-002,
   **   ~~~   ** Air System Named = CENTRAL SYSTEM did not converge for energy
   **   ~~~   ** Check values should be zero. Most Recent values listed first.
   **   ~~~   ** Demand-to-Supply interface energy check value iteration history trace: 1723.615861,1723.615861,1723.615861,1723.615861,1723.615861,1723.615861,1723.615861,1723.615861,1723.615861,1723.615860,
   **   ~~~   ** Supply-to-demand interface deck 1 energy check value iteration history trace: 2643.510220,2643.510220,2643.510219,2643.510219,2643.510219,2643.510219,2643.510219,2643.510219,2643.510218,2643.510218,
   ** Warning ** SimHVAC: Maximum iterations (20) exceeded for all HVAC loops, at ANNUAL, 03/05 11:30 - 11:45
   **   ~~~   ** The solution for one or more of the Air Loop HVAC systems did not appear to converge
   **   ~~~   ** Air System Named = CENTRAL SYSTEM did not converge for mass flow rate
   **   ~~~   ** Check values should be zero. Most Recent values listed first.
   **   ~~~   ** Demand-to-Supply interface mass flow rate check value iteration history trace: 9.362917E-002,9.362917E-002,9.362917E-002,9.362917E-002,9.362917E-002,9.362917E-002,9.362917E-002,9.362917E-002,9.362917E-002,9.362917E-002,
   **   ~~~   ** Supply-to-demand interface deck 1 mass flow rate check value iteration history trace: 9.362917E-002,9.362917E-002,9.362917E-002,9.362917E-002,9.362917E-002,9.362917E-002,9.362917E-002,9.362917E-002,9.362917E-002,9.362917E-002,
   **   ~~~   ** Air System Named = CENTRAL SYSTEM did not converge for energy
   **   ~~~   ** Check values should be zero. Most Recent values listed first.
   **   ~~~   ** Demand-to-Supply interface energy check value iteration history trace: 1851.884760,1851.884760,1851.884760,1851.884760,1851.884760,1851.884759,1851.884759,1851.884759,1851.884759,1851.884759,
   **   ~~~   ** Supply-to-demand interface deck 1 energy check value iteration history trace: 2868.394081,2868.394081,2868.394080,2868.394080,2868.394080,2868.394080,2868.394080,2868.394079,2868.394079,2868.394079,
   ** Warning ** SimHVAC: Maximum iterations (20) exceeded for all HVAC loops, at ANNUAL, 03/09 09:40 - 09:42
   **   ~~~   ** The solution for one or more of the Air Loop HVAC systems did not appear to converge
   **   ~~~   ** Air System Named = CENTRAL SYSTEM did not converge for mass flow rate
   **   ~~~   ** Check values should be zero. Most Recent values listed first.
   **   ~~~   ** Demand-to-Supply interface mass flow rate check value iteration history trace: 6.180801E-002,6.180801E-002,6.180801E-002,6.180801E-002,6.180801E-002,6.180801E-002,6.180801E-002,6.180801E-002,6.180801E-002,6.180801E-002,
   **   ~~~   ** Supply-to-demand interface deck 1 mass flow rate check value iteration history trace: 6.180801E-002,6.180801E-002,6.180801E-002,6.180801E-002,6.180801E-002,6.180801E-002,6.180801E-002,6.180801E-002,6.180801E-002,6.180801E-002,
   **   ~~~   ** Air System Named = CENTRAL SYSTEM did not converge for energy
   **   ~~~   ** Check values should be zero. Most Recent values listed first.
   **   ~~~   ** Demand-to-Supply interface energy check value iteration history trace: 1222.541175,1222.541175,1222.541175,1222.541175,1222.541175,1222.541175,1222.541175,1222.541175,1222.541175,1222.541175,
   **   ~~~   ** Supply-to-demand interface deck 1 energy check value iteration history trace: 2097.477173,2097.477173,2097.477173,2097.477173,2097.477173,2097.477173,2097.477173,2097.477172,2097.477172,2097.477172,
   ** Warning ** SimHVAC: Maximum iterations (20) exceeded for all HVAC loops, at ANNUAL, 03/13 15:00 - 15:15
   **   ~~~   ** The solution for one or more of the Air Loop HVAC systems did not appear to converge
   **   ~~~   ** Air System Named = CENTRAL SYSTEM did not converge for mass flow rate
   **   ~~~   ** Check values should be zero. Most Recent values listed first.
   **   ~~~   ** Demand-to-Supply interface mass flow rate check value iteration history trace: 4.777689E-002,4.777689E-002,4.777689E-002,4.777689E-002,4.777689E-002,4.777689E-002,4.777689E-002,4.777689E-002,4.777689E-002,4.777689E-002,
   **   ~~~   ** Supply-to-demand interface deck 1 mass flow rate check value iteration history trace: 4.777689E-002,4.777689E-002,4.777689E-002,4.777689E-002,4.777689E-002,4.777689E-002,4.777689E-002,4.777689E-002,4.777689E-002,4.777689E-002,
   **   ~~~   ** Air System Named = CENTRAL SYSTEM did not converge for energy
   **   ~~~   ** Check values should be zero. Most Recent values listed first.
   **   ~~~   ** Demand-to-Supply interface energy check value iteration history trace: 946.280183,946.280183,946.280183,946.280183,946.280183,946.280183,946.280183,946.280183,946.280183,946.280183,
   **   ~~~   ** Supply-to-demand interface deck 1 energy check value iteration history trace: 1674.158045,1674.158045,1674.158045,1674.158045,1674.158045,1674.158045,1674.158045,1674.158045,1674.158045,1674.158045,
   ** Warning ** SimHVAC: Maximum iterations (20) exceeded for all HVAC loops, at ANNUAL, 03/16 08:50 - 08:52
   **   ~~~   ** The solution for one or more of the Air Loop HVAC systems did not appear to converge
   **   ~~~   ** Air System Named = CENTRAL SYSTEM did not converge for mass flow rate
   **   ~~~   ** Check values should be zero. Most Recent values listed first.
   **   ~~~   ** Demand-to-Supply interface mass flow rate check value iteration history trace: 6.631949E-002,6.631949E-002,6.631949E-002,6.631949E-002,6.631949E-002,6.631949E-002,6.631949E-002,6.631949E-002,6.631949E-002,6.631949E-002,
   **   ~~~   ** Supply-to-demand interface deck 1 mass flow rate check value iteration history trace: 6.631949E-002,6.631949E-002,6.631949E-002,6.631949E-002,6.631949E-002,6.631949E-002,6.631949E-002,6.631949E-002,6.631949E-002,6.631949E-002,
   **   ~~~   ** Air System Named = CENTRAL SYSTEM did not converge for energy
   **   ~~~   ** Check values should be zero. Most Recent values listed first.
   **   ~~~   ** Demand-to-Supply interface energy check value iteration history trace: 1314.288906,1314.288906,1314.288906,1314.288906,1314.288905,1314.288905,1314.288905,1314.288905,1314.288905,1314.288905,
   **   ~~~   ** Supply-to-demand interface deck 1 energy check value iteration history trace: 2218.661414,2218.661414,2218.661414,2218.661414,2218.661414,2218.661414,2218.661413,2218.661413,2218.661413,2218.661413,
   ************* Simulation Error Summary *************
   ** Warning ** The following Report Variables were requested but not generated -- check.rdd file
   **   ~~~   ** Either the IDF did not contain these elements, the variable name is misspelled,
   **   ~~~   ** or the requested variable is an advanced output which requires Output : Diagnostics, DisplayAdvancedReportVariables;
   ************* Key=*, VarName=BASEBOARD TOTAL HEATING ENERGY, Frequency=
   ************* Key=*, VarName=WATER HEATER NATURALGAS ENERGY, Frequency=
   ************* Key=*, VarName=COOLING COIL TOTAL HEATING ENERGY, Frequency=
   ************* There are 34 unused schedules in input.
   ************* There are 388 unused week schedules in input.
   ************* There are 396 unused day schedules in input.
   ************* Use Output:Diagnostics,DisplayUnusedSchedules; to see them.
   *************
   ************* ===== Recurring Error Summary =====
   ************* The following recurring error messages occurred.
   *************
   *************  ** Warning ** "TOTAL HOT WATER LOAD" - Target water temperature should be less than or equal to the hot water temperature error continues...
   *************  **   ~~~   **   This error occurred 134035 total times;
   *************  **   ~~~   **   during Warmup 0 times;
   *************  **   ~~~   **   during Sizing 0 times.
   *************  **   ~~~   **   Max=12.062767  Min=2.563990E-004
   *************
   *************  ** Warning ** SimHVAC: Exceeding Maximum iterations for all HVAC loops, during ANNUAL continues
   *************  **   ~~~   **   This error occurred 24 total times;
   *************  **   ~~~   **   during Warmup 0 times;
   *************  **   ~~~   **   during Sizing 0 times.
   *************
   *************
   ************* ===== Final Error Summary =====
   ************* The following error categories occurred.  Consider correcting or noting.
   ************* Nominally Unused Constructions
   ************* ..The nominally unused constructions warning is provided to alert you to potential conditions that can cause
   ************* ..extra time during simulation. Each construction is calculated by the algorithm indicated in the HeatBalanceAlgorithm
   ************* ..object. You may remove the constructions indicated (when you use the DisplayExtraWarnings option).
   *************
   ************* EnergyPlus Warmup Error Summary. During Warmup: 1 Warning; 0 Severe Errors.
   ************* EnergyPlus Sizing Error Summary. During Sizing: 4 Warning; 0 Severe Errors.
   ************* EnergyPlus Completed Successfully-- 134091 Warning; 0 Severe Errors; Elapsed Time=00hr 01min 45.39sec
