Program Version,EnergyPlus, Version 22.2.0-c249759bad, YMD=2023.09.01 19:24,
   ************* Beginning Zone Sizing Calculations
   ** Warning ** ProcessScheduleInput: Schedule:Constant="ALWAYS ON DISCRETE", Schedule Type Limits Name="ONOFF" not found -- will not be validated
   ** Warning ** Foundation:Kiva="KIVA FOUNDATION", no Interior Horizontal Insulation Material Name defined
   **   ~~~   ** Interior Horizontal Insulation Depth will not be used.
   ** Warning ** CheckUsedConstructions: There are 15 nominally unused constructions in input.
   **   ~~~   ** Each Unused construction is shown.
   ************* Construction=INTERIOR FLOOR
   ************* Construction=INTERIOR WINDOW
   ************* Construction=EXTERIOR DOOR
   ************* Construction=INTERIOR DOOR
   ************* Construction=GABLE CONSTRUCTION
   ************* Construction=CRAWL_FLOOR
   ************* Construction=INSULATED PIPE
   ************* Construction=PLAIN PIPE
   ************* Construction=TDD PIPE
   ************* Construction=TDD DOME
   ************* Construction=TDD DIFFUSER
   ************* Construction=CRAWL WALL
   ************* Construction=CEILING-FLOOR-LAYER
   ************* Construction=SLAB CONSTRUCTION W FULL R10 INSULATION
   ************* Construction=SLAB CONSTRUCTION W FULL R5 INSULATION
   ** Warning ** GetDXCoils: Coil:Heating:DX:SingleSpeed="DX_HEATING_COIL" curve values
   **   ~~~   ** ... Defrost Energy Input Ratio Function of Temperature Curve Name = DEFROSTEIR output is not equal to 1.0 (+ or - 10%) at rated conditions.
   **   ~~~   ** ... Curve output at rated conditions = 0.152
   ************* Beginning System Sizing Calculations
   ************* Beginning Plant Sizing Calculations
   ** Warning ** Coil:WaterHeating:AirToWaterHeatPump:Wrapped "HEAT PUMP WATER HEATER EVAPORATOR": Rated air volume flow rate per watt of rated total water heating capacity is out of range
   **   ~~~   ** Min Rated Vol Flow Per Watt=[4.027E-005], Rated Vol Flow Per Watt=[1.510E-004], Max Rated Vol Flow Per Watt=[8.056E-005]. See Input-Output Reference Manual for valid range.
   ************* SizeFan: : Potential issue with equipment sizing for Fan:OnOff HEAT PUMP WATER HEATER FAN
   **   ~~~   ** User-Specified Maximum Flow Rate [m3/s] = 0.22653
   **   ~~~   ** differs from Design Size Maximum Flow Rate [m3/s] = 7.55250E-002
   **   ~~~   ** This may, or may not, indicate mismatched component sizes.
   **   ~~~   ** Verify that the value entered is intended and is consistent with other components.
   ** Warning ** Water heater = WATER HEATER TANK:  Recovery Efficiency and Energy Factor could not be calculated during the test for standard ratings
   **   ~~~   ** Setpoint was never recovered and/or heater never turned on
   ** Warning ** Check input. Pump nominal power or motor efficiency is set to 0, for pump=MAINS PRESSURE
   ** Warning ** Output:Meter: invalid Key Name="ELECTRIC_RANGE:INTERIOREQUIPMENT:ELECTRICITY" - not found.
   ** Warning ** Output:Meter: invalid Key Name="ELECTRIC_DRYER:INTERIOREQUIPMENT:ELECTRICITY" - not found.
   ** Warning ** Output:Meter: invalid Key Name="HEATRECOVERY:ELECTRICITY" - not found.
   ** Warning ** Output:Meter: invalid Key Name="HEATING:NATURALGAS" - not found.
   ** Warning ** Output:Meter: invalid Key Name="WATERSYSTEMS:NATURALGAS" - not found.
   ** Warning ** Output:Meter: invalid Key Name="PROPANE:FACILITY" - not found.
   ** Warning ** Output:Meter: invalid Key Name="HEATING:PROPANE" - not found.
   ************* Testing Individual Branch Integrity
   ************* All Branches passed integrity testing
   ************* Testing Individual Supply Air Path Integrity
   ************* All Supply Air Paths passed integrity testing
   ************* Testing Individual Return Air Path Integrity
   ************* All Return Air Paths passed integrity testing
   ************* No node connection errors were found.
   ************* Beginning Simulation
   ** Warning ** AirflowNetwork::Solver::validate_distribution: Heat pump water heater is simulated along with an AirflowNetwork but is not included in the AirflowNetwork.
   ** Warning ** CalcEquipmentFlowRates: "TOTAL HOT WATER LOAD" - Target water temperature is greater than the hot water temperature by (2.28 C)
   **   ~~~   **  Environment=EXTREME_WINTER, at Simulation time=01/13 06:00 - 06:15
   **   ~~~   ** ...target water temperature     = 53.33 C
   **   ~~~   ** ...hot water temperature        = 51.06 C
   **   ~~~   ** ...Target water temperature should be less than or equal to the hot water temperature. Verify temperature setpoints and schedules.
   ** Warning ** SimHVAC: Maximum iterations (20) exceeded for all HVAC loops, at EXTREME_WINTER, 01/15 08:45 - 08:50
   **   ~~~   ** The solution for one or more of the Air Loop HVAC systems did not appear to converge
   **   ~~~   ** Air System Named = CENTRAL SYSTEM did not converge for mass flow rate
   **   ~~~   ** Check values should be zero. Most Recent values listed first.
   **   ~~~   ** Demand-to-Supply interface mass flow rate check value iteration history trace: 5.573214E-002,5.573214E-002,5.573214E-002,5.573214E-002,5.573214E-002,5.573214E-002,5.573214E-002,5.573214E-002,5.573214E-002,5.573214E-002,
   **   ~~~   ** Supply-to-demand interface deck 1 mass flow rate check value iteration history trace: 5.573214E-002,5.573214E-002,5.573214E-002,5.573214E-002,5.573214E-002,5.573214E-002,5.573214E-002,5.573214E-002,5.573214E-002,5.573214E-002,
   **   ~~~   ** Air System Named = CENTRAL SYSTEM did not converge for energy
   **   ~~~   ** Check values should be zero. Most Recent values listed first.
   **   ~~~   ** Demand-to-Supply interface energy check value iteration history trace: 1104.427568,1104.427568,1104.427568,1104.427568,1104.427568,1104.427568,1104.427568,1104.427568,1104.427568,1104.427568,
   **   ~~~   ** Supply-to-demand interface deck 1 energy check value iteration history trace: 1971.720563,1971.720563,1971.720563,1971.720563,1971.720563,1971.720563,1971.720563,1971.720563,1971.720563,1971.720563,
   ** Warning ** SimHVAC: Maximum iterations (20) exceeded for all HVAC loops, at ANNUAL, 01/11 08:15 - 08:19
   **   ~~~   ** The solution for one or more of the Air Loop HVAC systems did not appear to converge
   **   ~~~   ** Air System Named = CENTRAL SYSTEM did not converge for mass flow rate
   **   ~~~   ** Check values should be zero. Most Recent values listed first.
   **   ~~~   ** Demand-to-Supply interface mass flow rate check value iteration history trace: 5.980955E-002,5.980955E-002,5.980955E-002,5.980955E-002,5.980955E-002,5.980955E-002,5.980955E-002,5.980955E-002,5.980955E-002,5.980955E-002,
   **   ~~~   ** Supply-to-demand interface deck 1 mass flow rate check value iteration history trace: 5.980955E-002,5.980955E-002,5.980955E-002,5.980955E-002,5.980955E-002,5.980955E-002,5.980955E-002,5.980955E-002,5.980955E-002,5.980955E-002,
   **   ~~~   ** Air System Named = CENTRAL SYSTEM did not converge for energy
   **   ~~~   ** Check values should be zero. Most Recent values listed first.
   **   ~~~   ** Demand-to-Supply interface energy check value iteration history trace: 1185.169766,1185.169766,1185.169766,1185.169766,1185.169766,1185.169766,1185.169766,1185.169766,1185.169766,1185.169766,
   **   ~~~   ** Supply-to-demand interface deck 1 energy check value iteration history trace: 2121.934129,2121.934129,2121.934129,2121.934129,2121.934129,2121.934129,2121.934129,2121.934129,2121.934129,2121.934129,
   ** Warning ** SimHVAC: Maximum iterations (20) exceeded for all HVAC loops, at ANNUAL, 01/15 09:08 - 09:11
   **   ~~~   ** The solution for one or more of the Air Loop HVAC systems did not appear to converge
   **   ~~~   ** Air System Named = CENTRAL SYSTEM did not converge for mass flow rate
   **   ~~~   ** Check values should be zero. Most Recent values listed first.
   **   ~~~   ** Demand-to-Supply interface mass flow rate check value iteration history trace: 6.738897E-002,6.738897E-002,6.738897E-002,6.738897E-002,6.738897E-002,6.738897E-002,6.738897E-002,6.738897E-002,6.738897E-002,6.738897E-002,
   **   ~~~   ** Supply-to-demand interface deck 1 mass flow rate check value iteration history trace: 6.738897E-002,6.738897E-002,6.738897E-002,6.738897E-002,6.738897E-002,6.738897E-002,6.738897E-002,6.738897E-002,6.738897E-002,6.738897E-002,
   **   ~~~   ** Air System Named = CENTRAL SYSTEM did not converge for energy
   **   ~~~   ** Check values should be zero. Most Recent values listed first.
   **   ~~~   ** Demand-to-Supply interface energy check value iteration history trace: 1335.465873,1335.465873,1335.465873,1335.465873,1335.465873,1335.465873,1335.465873,1335.465873,1335.465873,1335.465873,
   **   ~~~   ** Supply-to-demand interface deck 1 energy check value iteration history trace: 2390.624573,2390.624573,2390.624573,2390.624573,2390.624572,2390.624572,2390.624572,2390.624572,2390.624572,2390.624572,
   ** Warning ** SimHVAC: Maximum iterations (20) exceeded for all HVAC loops, at ANNUAL, 01/18 08:35 - 08:38
   **   ~~~   ** The solution for one or more of the Air Loop HVAC systems did not appear to converge
   **   ~~~   ** Air System Named = CENTRAL SYSTEM did not converge for mass flow rate
   **   ~~~   ** Check values should be zero. Most Recent values listed first.
   **   ~~~   ** Demand-to-Supply interface mass flow rate check value iteration history trace: 5.983024E-002,5.983024E-002,5.983024E-002,5.983024E-002,5.983024E-002,5.983024E-002,5.983024E-002,5.983024E-002,5.983024E-002,5.983024E-002,
   **   ~~~   ** Supply-to-demand interface deck 1 mass flow rate check value iteration history trace: 5.983024E-002,5.983024E-002,5.983024E-002,5.983024E-002,5.983024E-002,5.983024E-002,5.983024E-002,5.983024E-002,5.983024E-002,5.983024E-002,
   **   ~~~   ** Air System Named = CENTRAL SYSTEM did not converge for energy
   **   ~~~   ** Check values should be zero. Most Recent values listed first.
   **   ~~~   ** Demand-to-Supply interface energy check value iteration history trace: 1179.987899,1179.987899,1179.987899,1179.987899,1179.987898,1179.987898,1179.987898,1179.987898,1179.987898,1179.987898,
   **   ~~~   ** Supply-to-demand interface deck 1 energy check value iteration history trace: 2073.651616,2073.651616,2073.651616,2073.651616,2073.651616,2073.651615,2073.651615,2073.651615,2073.651615,2073.651615,
   ** Warning ** SimHVAC: Maximum iterations (20) exceeded for all HVAC loops, at ANNUAL, 01/19 04:15 - 04:30
   **   ~~~   ** The solution for one or more of the Air Loop HVAC systems did not appear to converge
   **   ~~~   ** Air System Named = CENTRAL SYSTEM did not converge for mass flow rate
   **   ~~~   ** Check values should be zero. Most Recent values listed first.
   **   ~~~   ** Demand-to-Supply interface mass flow rate check value iteration history trace: 8.113581E-002,8.113581E-002,8.113581E-002,8.113581E-002,8.113581E-002,8.113581E-002,8.113581E-002,8.113581E-002,8.113581E-002,8.113581E-002,
   **   ~~~   ** Supply-to-demand interface deck 1 mass flow rate check value iteration history trace: 8.113581E-002,8.113581E-002,8.113581E-002,8.113581E-002,8.113581E-002,8.113581E-002,8.113581E-002,8.113581E-002,8.113581E-002,8.113581E-002,
   **   ~~~   ** Air System Named = CENTRAL SYSTEM did not converge for energy
   **   ~~~   ** Check values should be zero. Most Recent values listed first.
   **   ~~~   ** Demand-to-Supply interface energy check value iteration history trace: 1526.154159,1526.154159,1526.154159,1526.154159,1526.154158,1526.154158,1526.154158,1526.154158,1526.154158,1526.154158,
   **   ~~~   ** Supply-to-demand interface deck 1 energy check value iteration history trace: 2396.897063,2396.897062,2396.897062,2396.897062,2396.897062,2396.897062,2396.897062,2396.897062,2396.897062,2396.897061,
   ** Warning ** SimHVAC: Maximum iterations (20) exceeded for all HVAC loops, at ANNUAL, 02/01 08:41 - 08:43
   **   ~~~   ** The solution for one or more of the Air Loop HVAC systems did not appear to converge
   **   ~~~   ** Air System Named = CENTRAL SYSTEM did not converge for mass flow rate
   **   ~~~   ** Check values should be zero. Most Recent values listed first.
   **   ~~~   ** Demand-to-Supply interface mass flow rate check value iteration history trace: 6.111391E-002,6.111391E-002,6.111391E-002,6.111391E-002,6.111391E-002,6.111391E-002,6.111391E-002,6.111391E-002,6.111391E-002,6.111391E-002,
   **   ~~~   ** Supply-to-demand interface deck 1 mass flow rate check value iteration history trace: 6.111391E-002,6.111391E-002,6.111391E-002,6.111391E-002,6.111391E-002,6.111391E-002,6.111391E-002,6.111391E-002,6.111391E-002,6.111391E-002,
   **   ~~~   ** Air System Named = CENTRAL SYSTEM did not converge for energy
   **   ~~~   ** Check values should be zero. Most Recent values listed first.
   **   ~~~   ** Demand-to-Supply interface energy check value iteration history trace: 1206.161148,1206.161148,1206.161148,1206.161148,1206.161148,1206.161148,1206.161148,1206.161148,1206.161148,1206.161148,
   **   ~~~   ** Supply-to-demand interface deck 1 energy check value iteration history trace: 2088.173352,2088.173352,2088.173352,2088.173352,2088.173352,2088.173352,2088.173352,2088.173352,2088.173351,2088.173351,
   ** Warning ** SimHVAC: Maximum iterations (20) exceeded for all HVAC loops, at ANNUAL, 02/06 02:45 - 03:00
   **   ~~~   ** The solution for one or more of the Air Loop HVAC systems did not appear to converge
   **   ~~~   ** Air System Named = CENTRAL SYSTEM did not converge for mass flow rate
   **   ~~~   ** Check values should be zero. Most Recent values listed first.
   **   ~~~   ** Demand-to-Supply interface mass flow rate check value iteration history trace: 3.570523E-002,3.570523E-002,3.570523E-002,3.570523E-002,3.570523E-002,3.570523E-002,3.570523E-002,3.570523E-002,3.570523E-002,3.570523E-002,
   **   ~~~   ** Supply-to-demand interface deck 1 mass flow rate check value iteration history trace: 3.570523E-002,3.570523E-002,3.570523E-002,3.570523E-002,3.570523E-002,3.570523E-002,3.570523E-002,3.570523E-002,3.570523E-002,3.570523E-002,
   **   ~~~   ** Air System Named = CENTRAL SYSTEM did not converge for energy
   **   ~~~   ** Check values should be zero. Most Recent values listed first.
   **   ~~~   ** Demand-to-Supply interface energy check value iteration history trace: 666.839179,666.839179,666.839179,666.839179,666.839179,666.839179,666.839179,666.839179,666.839179,666.839179,
   **   ~~~   ** Supply-to-demand interface deck 1 energy check value iteration history trace: 1034.944528,1034.944528,1034.944528,1034.944528,1034.944528,1034.944528,1034.944528,1034.944528,1034.944528,1034.944528,
   ** Warning ** SimHVAC: Maximum iterations (20) exceeded for all HVAC loops, at ANNUAL, 02/14 09:15 - 09:30
   **   ~~~   ** The solution for one or more of the Air Loop HVAC systems did not appear to converge
   **   ~~~   ** Air System Named = CENTRAL SYSTEM did not converge for mass flow rate
   **   ~~~   ** Check values should be zero. Most Recent values listed first.
   **   ~~~   ** Demand-to-Supply interface mass flow rate check value iteration history trace: 4.966803E-002,4.966803E-002,4.966803E-002,4.966803E-002,4.966803E-002,4.966803E-002,4.966803E-002,4.966803E-002,4.966803E-002,4.966803E-002,
   **   ~~~   ** Supply-to-demand interface deck 1 mass flow rate check value iteration history trace: 4.966803E-002,4.966803E-002,4.966803E-002,4.966803E-002,4.966803E-002,4.966803E-002,4.966803E-002,4.966803E-002,4.966803E-002,4.966803E-002,
   **   ~~~   ** Air System Named = CENTRAL SYSTEM did not converge for energy
   **   ~~~   ** Check values should be zero. Most Recent values listed first.
   **   ~~~   ** Demand-to-Supply interface energy check value iteration history trace: 971.311415,971.311415,971.311415,971.311415,971.311415,971.311415,971.311415,971.311415,971.311414,971.311414,
   **   ~~~   ** Supply-to-demand interface deck 1 energy check value iteration history trace: 1785.824538,1785.824538,1785.824538,1785.824538,1785.824538,1785.824538,1785.824538,1785.824538,1785.824538,1785.824538,
   ** Warning ** SimHVAC: Maximum iterations (20) exceeded for all HVAC loops, at ANNUAL, 03/07 08:42 - 08:45
   **   ~~~   ** The solution for one or more of the Air Loop HVAC systems did not appear to converge
   **   ~~~   ** Air System Named = CENTRAL SYSTEM did not converge for mass flow rate
   **   ~~~   ** Check values should be zero. Most Recent values listed first.
   **   ~~~   ** Demand-to-Supply interface mass flow rate check value iteration history trace: 7.488135E-002,7.488135E-002,7.488135E-002,7.488135E-002,7.488135E-002,7.488135E-002,7.488135E-002,7.488135E-002,7.488135E-002,7.488135E-002,
   **   ~~~   ** Supply-to-demand interface deck 1 mass flow rate check value iteration history trace: 7.488135E-002,7.488135E-002,7.488135E-002,7.488135E-002,7.488135E-002,7.488135E-002,7.488135E-002,7.488135E-002,7.488135E-002,7.488135E-002,
   **   ~~~   ** Air System Named = CENTRAL SYSTEM did not converge for energy
   **   ~~~   ** Check values should be zero. Most Recent values listed first.
   **   ~~~   ** Demand-to-Supply interface energy check value iteration history trace: 1763.560252,1763.560252,1763.560253,1763.560253,1763.560253,1763.560253,1763.560254,1763.560254,1763.560254,1763.560255,
   **   ~~~   ** Supply-to-demand interface deck 1 energy check value iteration history trace: 779.906115,779.906115,779.906116,779.906116,779.906116,779.906116,779.906116,779.906116,779.906116,779.906116,
   ** Warning ** SimHVAC: Maximum iterations (20) exceeded for all HVAC loops, at ANNUAL, 03/08 16:15 - 16:30
   **   ~~~   ** The solution for one or more of the Air Loop HVAC systems did not appear to converge
   **   ~~~   ** Air System Named = CENTRAL SYSTEM did not converge for energy
   **   ~~~   ** Check values should be zero. Most Recent values listed first.
   **   ~~~   ** Demand-to-Supply interface energy check value iteration history trace: 223.746199,223.746199,223.746199,223.746199,223.746199,223.746199,223.746199,223.746199,223.746199,223.746199,
   **   ~~~   ** Supply-to-demand interface deck 1 energy check value iteration history trace: 86.423010,86.423010,86.423010,86.423010,86.423010,86.423010,86.423010,86.423010,86.423010,86.423010,
   ** Warning ** SimHVAC: Maximum iterations (20) exceeded for all HVAC loops, at ANNUAL, 12/27 08:36 - 08:39
   **   ~~~   ** The solution for one or more of the Air Loop HVAC systems did not appear to converge
   **   ~~~   ** Air System Named = CENTRAL SYSTEM did not converge for mass flow rate
   **   ~~~   ** Check values should be zero. Most Recent values listed first.
   **   ~~~   ** Demand-to-Supply interface mass flow rate check value iteration history trace: 5.695800E-002,5.695800E-002,5.695800E-002,5.695800E-002,5.695800E-002,5.695800E-002,5.695800E-002,5.695800E-002,5.695800E-002,5.695800E-002,
   **   ~~~   ** Supply-to-demand interface deck 1 mass flow rate check value iteration history trace: 5.695800E-002,5.695800E-002,5.695800E-002,5.695800E-002,5.695800E-002,5.695800E-002,5.695800E-002,5.695800E-002,5.695800E-002,5.695800E-002,
   **   ~~~   ** Air System Named = CENTRAL SYSTEM did not converge for energy
   **   ~~~   ** Check values should be zero. Most Recent values listed first.
   **   ~~~   ** Demand-to-Supply interface energy check value iteration history trace: 1122.047041,1122.047041,1122.047041,1122.047041,1122.047041,1122.047041,1122.047041,1122.047041,1122.047040,1122.047040,
   **   ~~~   ** Supply-to-demand interface deck 1 energy check value iteration history trace: 1986.882562,1986.882562,1986.882562,1986.882562,1986.882562,1986.882562,1986.882562,1986.882562,1986.882562,1986.882562,
   ** Warning ** SimHVAC: Maximum iterations (20) exceeded for all HVAC loops, at ANNUAL, 12/27 20:50 - 20:55
   **   ~~~   ** The solution for one or more of the Air Loop HVAC systems did not appear to converge
   **   ~~~   ** Air System Named = CENTRAL SYSTEM did not converge for mass flow rate
   **   ~~~   ** Check values should be zero. Most Recent values listed first.
   **   ~~~   ** Demand-to-Supply interface mass flow rate check value iteration history trace: 0.105740,0.105740,0.105740,0.105740,0.105740,0.105740,0.105740,0.105740,0.105740,0.105740,
   **   ~~~   ** Supply-to-demand interface deck 1 mass flow rate check value iteration history trace: 0.105740,0.105740,0.105740,0.105740,0.105740,0.105740,0.105740,0.105740,0.105740,0.105740,
   **   ~~~   ** Air System Named = CENTRAL SYSTEM did not converge for energy
   **   ~~~   ** Check values should be zero. Most Recent values listed first.
   **   ~~~   ** Demand-to-Supply interface energy check value iteration history trace: 2481.272479,2481.272479,2481.272480,2481.272480,2481.272480,2481.272480,2481.272481,2481.272481,2481.272481,2481.272482,
   **   ~~~   ** Supply-to-demand interface deck 1 energy check value iteration history trace: 968.094034,968.094034,968.094034,968.094034,968.094034,968.094034,968.094034,968.094035,968.094035,968.094035,
   ************* Simulation Error Summary *************
   ** Warning ** The following Report Variables were requested but not generated -- check.rdd file
   **   ~~~   ** Either the IDF did not contain these elements, the variable name is misspelled,
   **   ~~~   ** or the requested variable is an advanced output which requires Output : Diagnostics, DisplayAdvancedReportVariables;
   ************* Key=*, VarName=BASEBOARD TOTAL HEATING ENERGY, Frequency=
   ************* Key=*, VarName=WATER HEATER NATURALGAS ENERGY, Frequency=
   ************* Key=*, VarName=COOLING COIL TOTAL HEATING ENERGY, Frequency=
   ************* There are 34 unused schedules in input.
   ************* There are 388 unused week schedules in input.
   ************* There are 396 unused day schedules in input.
   ************* Use Output:Diagnostics,DisplayUnusedSchedules; to see them.
   *************
   ************* ===== Recurring Error Summary =====
   ************* The following recurring error messages occurred.
   *************
   *************  ** Warning ** "TOTAL HOT WATER LOAD" - Target water temperature should be less than or equal to the hot water temperature error continues...
   *************  **   ~~~   **   This error occurred 191497 total times;
   *************  **   ~~~   **   during Warmup 0 times;
   *************  **   ~~~   **   during Sizing 0 times.
   *************  **   ~~~   **   Max=8.479581  Min=2.952096E-004
   *************
   *************
   ************* ===== Final Error Summary =====
   ************* The following error categories occurred.  Consider correcting or noting.
   ************* Nominally Unused Constructions
   ************* ..The nominally unused constructions warning is provided to alert you to potential conditions that can cause
   ************* ..extra time during simulation. Each construction is calculated by the algorithm indicated in the HeatBalanceAlgorithm
   ************* ..object. You may remove the constructions indicated (when you use the DisplayExtraWarnings option).
   *************
   ************* EnergyPlus Warmup Error Summary. During Warmup: 1 Warning; 0 Severe Errors.
   ************* EnergyPlus Sizing Error Summary. During Sizing: 4 Warning; 0 Severe Errors.
   ************* EnergyPlus Completed Successfully-- 191526 Warning; 0 Severe Errors; Elapsed Time=00hr 02min  7.41sec
