Program Version,EnergyPlus, Version 22.2.0-c249759bad, YMD=2023.09.01 20:10,
   ************* Beginning Zone Sizing Calculations
   ** Warning ** ProcessScheduleInput: Schedule:Constant="ALWAYS ON DISCRETE", Schedule Type Limits Name="ONOFF" not found -- will not be validated
   ** Warning ** Foundation:Kiva="KIVA FOUNDATION", no Interior Horizontal Insulation Material Name defined
   **   ~~~   ** Interior Horizontal Insulation Depth will not be used.
   ** Warning ** CheckUsedConstructions: There are 15 nominally unused constructions in input.
   **   ~~~   ** Each Unused construction is shown.
   ************* Construction=INTERIOR FLOOR
   ************* Construction=INTERIOR WINDOW
   ************* Construction=EXTERIOR DOOR
   ************* Construction=INTERIOR DOOR
   ************* Construction=GABLE CONSTRUCTION
   ************* Construction=CRAWL_FLOOR
   ************* Construction=INSULATED PIPE
   ************* Construction=PLAIN PIPE
   ************* Construction=TDD PIPE
   ************* Construction=TDD DOME
   ************* Construction=TDD DIFFUSER
   ************* Construction=CRAWL WALL
   ************* Construction=CEILING-FLOOR-LAYER
   ************* Construction=SLAB CONSTRUCTION W FULL R10 INSULATION
   ************* Construction=SLAB CONSTRUCTION W FULL R5 INSULATION
   ** Warning ** GetDXCoils: Coil:Heating:DX:SingleSpeed="DX_HEATING_COIL" curve values
   **   ~~~   ** ... Defrost Energy Input Ratio Function of Temperature Curve Name = DEFROSTEIR output is not equal to 1.0 (+ or - 10%) at rated conditions.
   **   ~~~   ** ... Curve output at rated conditions = 0.152
   ************* Beginning System Sizing Calculations
   ************* Beginning Plant Sizing Calculations
   ** Warning ** Coil:WaterHeating:AirToWaterHeatPump:Wrapped "HEAT PUMP WATER HEATER EVAPORATOR": Rated air volume flow rate per watt of rated total water heating capacity is out of range
   **   ~~~   ** Min Rated Vol Flow Per Watt=[4.027E-005], Rated Vol Flow Per Watt=[1.510E-004], Max Rated Vol Flow Per Watt=[8.056E-005]. See Input-Output Reference Manual for valid range.
   ************* SizeFan: : Potential issue with equipment sizing for Fan:OnOff HEAT PUMP WATER HEATER FAN
   **   ~~~   ** User-Specified Maximum Flow Rate [m3/s] = 0.22653
   **   ~~~   ** differs from Design Size Maximum Flow Rate [m3/s] = 7.55250E-002
   **   ~~~   ** This may, or may not, indicate mismatched component sizes.
   **   ~~~   ** Verify that the value entered is intended and is consistent with other components.
   ** Warning ** Water heater = WATER HEATER TANK:  Recovery Efficiency and Energy Factor could not be calculated during the test for standard ratings
   **   ~~~   ** Setpoint was never recovered and/or heater never turned on
   ** Warning ** Check input. Pump nominal power or motor efficiency is set to 0, for pump=MAINS PRESSURE
   ** Warning ** Output:Meter: invalid Key Name="ELECTRIC_RANGE:INTERIOREQUIPMENT:ELECTRICITY" - not found.
   ** Warning ** Output:Meter: invalid Key Name="ELECTRIC_DRYER:INTERIOREQUIPMENT:ELECTRICITY" - not found.
   ** Warning ** Output:Meter: invalid Key Name="HEATRECOVERY:ELECTRICITY" - not found.
   ** Warning ** Output:Meter: invalid Key Name="HEATING:NATURALGAS" - not found.
   ** Warning ** Output:Meter: invalid Key Name="WATERSYSTEMS:NATURALGAS" - not found.
   ** Warning ** Output:Meter: invalid Key Name="PROPANE:FACILITY" - not found.
   ** Warning ** Output:Meter: invalid Key Name="HEATING:PROPANE" - not found.
   ************* Testing Individual Branch Integrity
   ************* All Branches passed integrity testing
   ************* Testing Individual Supply Air Path Integrity
   ************* All Supply Air Paths passed integrity testing
   ************* Testing Individual Return Air Path Integrity
   ************* All Return Air Paths passed integrity testing
   ************* No node connection errors were found.
   ************* Beginning Simulation
   ** Warning ** AirflowNetwork::Solver::validate_distribution: Heat pump water heater is simulated along with an AirflowNetwork but is not included in the AirflowNetwork.
   ** Warning ** CalcEquipmentFlowRates: "TOTAL HOT WATER LOAD" - Target water temperature is greater than the hot water temperature by (4.35 C)
   **   ~~~   **  Environment=EXTREME_WINTER, at Simulation time=01/27 07:00 - 07:15
   **   ~~~   ** ...target water temperature     = 53.33 C
   **   ~~~   ** ...hot water temperature        = 48.98 C
   **   ~~~   ** ...Target water temperature should be less than or equal to the hot water temperature. Verify temperature setpoints and schedules.
   ** Warning ** SimHVAC: Maximum iterations (20) exceeded for all HVAC loops, at ANNUAL, 01/31 14:53 - 15:00
   **   ~~~   ** The solution for one or more of the Air Loop HVAC systems did not appear to converge
   **   ~~~   ** Air System Named = CENTRAL SYSTEM did not converge for mass flow rate
   **   ~~~   ** Check values should be zero. Most Recent values listed first.
   **   ~~~   ** Demand-to-Supply interface mass flow rate check value iteration history trace: 7.366381E-002,7.366381E-002,7.366381E-002,7.366381E-002,7.366381E-002,7.366381E-002,7.366381E-002,7.366381E-002,7.366381E-002,7.366381E-002,
   **   ~~~   ** Supply-to-demand interface deck 1 mass flow rate check value iteration history trace: 7.366381E-002,7.366381E-002,7.366381E-002,7.366381E-002,7.366381E-002,7.366381E-002,7.366381E-002,7.366381E-002,7.366381E-002,7.366381E-002,
   **   ~~~   ** Air System Named = CENTRAL SYSTEM did not converge for energy
   **   ~~~   ** Check values should be zero. Most Recent values listed first.
   **   ~~~   ** Demand-to-Supply interface energy check value iteration history trace: 1443.345386,1443.345386,1443.345385,1443.345385,1443.345385,1443.345385,1443.345385,1443.345385,1443.345385,1443.345385,
   **   ~~~   ** Supply-to-demand interface deck 1 energy check value iteration history trace: 2164.514065,2164.514065,2164.514065,2164.514065,2164.514065,2164.514065,2164.514064,2164.514064,2164.514064,2164.514064,
   ** Warning ** SimHVAC: Maximum iterations (20) exceeded for all HVAC loops, at ANNUAL, 02/19 12:30 - 12:45
   **   ~~~   ** The solution for one or more of the Air Loop HVAC systems did not appear to converge
   **   ~~~   ** Air System Named = CENTRAL SYSTEM did not converge for mass flow rate
   **   ~~~   ** Check values should be zero. Most Recent values listed first.
   **   ~~~   ** Demand-to-Supply interface mass flow rate check value iteration history trace: 6.589115E-002,6.589115E-002,6.589115E-002,6.589115E-002,6.589115E-002,6.589115E-002,6.589115E-002,6.589115E-002,6.589115E-002,6.589115E-002,
   **   ~~~   ** Supply-to-demand interface deck 1 mass flow rate check value iteration history trace: 6.589115E-002,6.589115E-002,6.589115E-002,6.589115E-002,6.589115E-002,6.589115E-002,6.589115E-002,6.589115E-002,6.589115E-002,6.589115E-002,
   **   ~~~   ** Air System Named = CENTRAL SYSTEM did not converge for energy
   **   ~~~   ** Check values should be zero. Most Recent values listed first.
   **   ~~~   ** Demand-to-Supply interface energy check value iteration history trace: 1305.396808,1305.396808,1305.396807,1305.396807,1305.396807,1305.396807,1305.396806,1305.396806,1305.396806,1305.396806,
   **   ~~~   ** Supply-to-demand interface deck 1 energy check value iteration history trace: 2209.697292,2209.697292,2209.697291,2209.697291,2209.697290,2209.697290,2209.697290,2209.697289,2209.697289,2209.697288,
   ** Warning ** SimHVAC: Maximum iterations (20) exceeded for all HVAC loops, at ANNUAL, 02/19 12:30 - 12:38
   **   ~~~   ** The solution for one or more of the Air Loop HVAC systems did not appear to converge
   **   ~~~   ** Air System Named = CENTRAL SYSTEM did not converge for mass flow rate
   **   ~~~   ** Check values should be zero. Most Recent values listed first.
   **   ~~~   ** Demand-to-Supply interface mass flow rate check value iteration history trace: 6.619754E-002,6.619754E-002,6.619754E-002,6.619754E-002,6.619754E-002,6.619754E-002,6.619754E-002,6.619754E-002,6.619754E-002,6.619754E-002,
   **   ~~~   ** Supply-to-demand interface deck 1 mass flow rate check value iteration history trace: 6.619754E-002,6.619754E-002,6.619754E-002,6.619754E-002,6.619754E-002,6.619754E-002,6.619754E-002,6.619754E-002,6.619754E-002,6.619754E-002,
   **   ~~~   ** Air System Named = CENTRAL SYSTEM did not converge for energy
   **   ~~~   ** Check values should be zero. Most Recent values listed first.
   **   ~~~   ** Demand-to-Supply interface energy check value iteration history trace: 1311.466803,1311.466803,1311.466803,1311.466802,1311.466802,1311.466802,1311.466802,1311.466801,1311.466801,1311.466801,
   **   ~~~   ** Supply-to-demand interface deck 1 energy check value iteration history trace: 2219.970705,2219.970705,2219.970705,2219.970704,2219.970704,2219.970703,2219.970703,2219.970702,2219.970702,2219.970702,
   ** Warning ** SimHVAC: Maximum iterations (20) exceeded for all HVAC loops, at ANNUAL, 02/22 09:45 - 10:00
   **   ~~~   ** The solution for one or more of the Air Loop HVAC systems did not appear to converge
   **   ~~~   ** Air System Named = CENTRAL SYSTEM did not converge for mass flow rate
   **   ~~~   ** Check values should be zero. Most Recent values listed first.
   **   ~~~   ** Demand-to-Supply interface mass flow rate check value iteration history trace: 0.100651,0.100651,0.100651,0.100651,0.100651,0.100651,0.100651,0.100651,0.100651,0.100651,
   **   ~~~   ** Supply-to-demand interface deck 1 mass flow rate check value iteration history trace: 0.100651,0.100651,0.100651,0.100651,0.100651,0.100651,0.100651,0.100651,0.100651,0.100651,
   **   ~~~   ** Air System Named = CENTRAL SYSTEM did not converge for energy
   **   ~~~   ** Check values should be zero. Most Recent values listed first.
   **   ~~~   ** Demand-to-Supply interface energy check value iteration history trace: 1994.525495,1994.525495,1994.525495,1994.525494,1994.525494,1994.525494,1994.525494,1994.525494,1994.525494,1994.525494,
   **   ~~~   ** Supply-to-demand interface deck 1 energy check value iteration history trace: 3161.636581,3161.636581,3161.636581,3161.636581,3161.636580,3161.636580,3161.636580,3161.636580,3161.636580,3161.636579,
   ** Warning ** SimHVAC: Maximum iterations (20) exceeded for all HVAC loops, at ANNUAL, 03/05 10:47 - 10:48
   **   ~~~   ** The solution for one or more of the Air Loop HVAC systems did not appear to converge
   **   ~~~   ** Air System Named = CENTRAL SYSTEM did not converge for mass flow rate
   **   ~~~   ** Check values should be zero. Most Recent values listed first.
   **   ~~~   ** Demand-to-Supply interface mass flow rate check value iteration history trace: 0.102230,0.102230,0.102230,0.102230,0.102230,0.102230,0.102230,0.102230,0.102230,0.102230,
   **   ~~~   ** Supply-to-demand interface deck 1 mass flow rate check value iteration history trace: 0.102230,0.102230,0.102230,0.102230,0.102230,0.102230,0.102230,0.102230,0.102230,0.102230,
   **   ~~~   ** Air System Named = CENTRAL SYSTEM did not converge for energy
   **   ~~~   ** Check values should be zero. Most Recent values listed first.
   **   ~~~   ** Demand-to-Supply interface energy check value iteration history trace: 2026.064902,2026.064902,2026.064901,2026.064901,2026.064901,2026.064901,2026.064901,2026.064901,2026.064901,2026.064900,
   **   ~~~   ** Supply-to-demand interface deck 1 energy check value iteration history trace: 3087.132367,3087.132367,3087.132367,3087.132366,3087.132366,3087.132366,3087.132366,3087.132366,3087.132365,3087.132365,
   ** Warning ** SimHVAC: Maximum iterations (20) exceeded for all HVAC loops, at ANNUAL, 03/06 22:45 - 23:00
   **   ~~~   ** The solution for one or more of the Air Loop HVAC systems did not appear to converge
   **   ~~~   ** Air System Named = CENTRAL SYSTEM did not converge for mass flow rate
   **   ~~~   ** Check values should be zero. Most Recent values listed first.
   **   ~~~   ** Demand-to-Supply interface mass flow rate check value iteration history trace: 6.836785E-002,6.836785E-002,6.836785E-002,6.836785E-002,6.836785E-002,6.836785E-002,6.836785E-002,6.836785E-002,6.836785E-002,6.836785E-002,
   **   ~~~   ** Supply-to-demand interface deck 1 mass flow rate check value iteration history trace: 6.836785E-002,6.836785E-002,6.836785E-002,6.836785E-002,6.836785E-002,6.836785E-002,6.836785E-002,6.836785E-002,6.836785E-002,6.836785E-002,
   **   ~~~   ** Air System Named = CENTRAL SYSTEM did not converge for energy
   **   ~~~   ** Check values should be zero. Most Recent values listed first.
   **   ~~~   ** Demand-to-Supply interface energy check value iteration history trace: 1278.934059,1278.934059,1278.934058,1278.934058,1278.934058,1278.934058,1278.934058,1278.934058,1278.934058,1278.934058,
   **   ~~~   ** Supply-to-demand interface deck 1 energy check value iteration history trace: 2209.103635,2209.103635,2209.103635,2209.103635,2209.103635,2209.103635,2209.103635,2209.103635,2209.103634,2209.103634,
   ** Warning ** SimHVAC: Maximum iterations (20) exceeded for all HVAC loops, at ANNUAL, 03/12 10:00 - 10:15
   **   ~~~   ** The solution for one or more of the Air Loop HVAC systems did not appear to converge
   **   ~~~   ** Air System Named = CENTRAL SYSTEM did not converge for mass flow rate
   **   ~~~   ** Check values should be zero. Most Recent values listed first.
   **   ~~~   ** Demand-to-Supply interface mass flow rate check value iteration history trace: 0.104284,0.104284,0.104284,0.104284,0.104284,0.104284,0.104284,0.104284,0.104284,0.104284,
   **   ~~~   ** Supply-to-demand interface deck 1 mass flow rate check value iteration history trace: 0.104284,0.104284,0.104284,0.104284,0.104284,0.104284,0.104284,0.104284,0.104284,0.104284,
   **   ~~~   ** Air System Named = CENTRAL SYSTEM did not converge for energy
   **   ~~~   ** Check values should be zero. Most Recent values listed first.
   **   ~~~   ** Demand-to-Supply interface energy check value iteration history trace: 2046.539011,2046.539011,2046.539011,2046.539011,2046.539011,2046.539010,2046.539010,2046.539010,2046.539010,2046.539010,
   **   ~~~   ** Supply-to-demand interface deck 1 energy check value iteration history trace: 3152.002687,3152.002687,3152.002687,3152.002687,3152.002686,3152.002686,3152.002686,3152.002686,3152.002686,3152.002685,
   ** Warning ** SimHVAC: Maximum iterations (20) exceeded for all HVAC loops, at ANNUAL, 03/12 20:40 - 20:45
   **   ~~~   ** The solution for one or more of the Air Loop HVAC systems did not appear to converge
   **   ~~~   ** Air System Named = CENTRAL SYSTEM did not converge for mass flow rate
   **   ~~~   ** Check values should be zero. Most Recent values listed first.
   **   ~~~   ** Demand-to-Supply interface mass flow rate check value iteration history trace: 0.114145,0.114145,0.114145,0.114145,0.114145,0.114145,0.114145,0.114145,0.114145,0.114145,
   **   ~~~   ** Supply-to-demand interface deck 1 mass flow rate check value iteration history trace: 0.114145,0.114145,0.114145,0.114145,0.114145,0.114145,0.114145,0.114145,0.114145,0.114145,
   **   ~~~   ** Air System Named = CENTRAL SYSTEM did not converge for energy
   **   ~~~   ** Check values should be zero. Most Recent values listed first.
   **   ~~~   ** Demand-to-Supply interface energy check value iteration history trace: 2258.322322,2258.322322,2258.322322,2258.322322,2258.322322,2258.322322,2258.322321,2258.322321,2258.322321,2258.322321,
   **   ~~~   ** Supply-to-demand interface deck 1 energy check value iteration history trace: 3415.006874,3415.006874,3415.006873,3415.006873,3415.006873,3415.006873,3415.006872,3415.006872,3415.006872,3415.006872,
   ** Warning ** SimHVAC: Maximum iterations (20) exceeded for all HVAC loops, at ANNUAL, 03/15 10:17 - 10:20
   **   ~~~   ** The solution for one or more of the Air Loop HVAC systems did not appear to converge
   **   ~~~   ** Air System Named = CENTRAL SYSTEM did not converge for mass flow rate
   **   ~~~   ** Check values should be zero. Most Recent values listed first.
   **   ~~~   ** Demand-to-Supply interface mass flow rate check value iteration history trace: 7.846591E-002,7.846591E-002,7.846591E-002,7.846591E-002,7.846591E-002,7.846591E-002,7.846591E-002,7.846591E-002,7.846591E-002,7.846591E-002,
   **   ~~~   ** Supply-to-demand interface deck 1 mass flow rate check value iteration history trace: 7.846591E-002,7.846591E-002,7.846591E-002,7.846591E-002,7.846591E-002,7.846591E-002,7.846591E-002,7.846591E-002,7.846591E-002,7.846591E-002,
   **   ~~~   ** Air System Named = CENTRAL SYSTEM did not converge for energy
   **   ~~~   ** Check values should be zero. Most Recent values listed first.
   **   ~~~   ** Demand-to-Supply interface energy check value iteration history trace: 1548.624180,1548.624180,1548.624180,1548.624180,1548.624180,1548.624180,1548.624179,1548.624179,1548.624179,1548.624179,
   **   ~~~   ** Supply-to-demand interface deck 1 energy check value iteration history trace: 2670.967977,2670.967977,2670.967977,2670.967977,2670.967977,2670.967976,2670.967976,2670.967976,2670.967976,2670.967976,
   ** Warning ** SimHVAC: Maximum iterations (20) exceeded for all HVAC loops, at ANNUAL, 03/25 10:12 - 10:15
   **   ~~~   ** The solution for one or more of the Air Loop HVAC systems did not appear to converge
   **   ~~~   ** Air System Named = CENTRAL SYSTEM did not converge for mass flow rate
   **   ~~~   ** Check values should be zero. Most Recent values listed first.
   **   ~~~   ** Demand-to-Supply interface mass flow rate check value iteration history trace: 7.130278E-002,7.130278E-002,7.130278E-002,7.130278E-002,7.130278E-002,7.130278E-002,7.130278E-002,7.130278E-002,7.130278E-002,7.130278E-002,
   **   ~~~   ** Supply-to-demand interface deck 1 mass flow rate check value iteration history trace: 7.130278E-002,7.130278E-002,7.130278E-002,7.130278E-002,7.130278E-002,7.130278E-002,7.130278E-002,7.130278E-002,7.130278E-002,7.130278E-002,
   **   ~~~   ** Air System Named = CENTRAL SYSTEM did not converge for energy
   **   ~~~   ** Check values should be zero. Most Recent values listed first.
   **   ~~~   ** Demand-to-Supply interface energy check value iteration history trace: 1408.821942,1408.821942,1408.821942,1408.821942,1408.821942,1408.821942,1408.821942,1408.821942,1408.821942,1408.821941,
   **   ~~~   ** Supply-to-demand interface deck 1 energy check value iteration history trace: 2415.021445,2415.021445,2415.021445,2415.021444,2415.021444,2415.021444,2415.021444,2415.021444,2415.021444,2415.021444,
   ** Warning ** SimHVAC: Maximum iterations (20) exceeded for all HVAC loops, at ANNUAL, 04/01 22:45 - 23:00
   **   ~~~   ** The solution for one or more of the Air Loop HVAC systems did not appear to converge
   **   ~~~   ** Air System Named = CENTRAL SYSTEM did not converge for mass flow rate
   **   ~~~   ** Check values should be zero. Most Recent values listed first.
   **   ~~~   ** Demand-to-Supply interface mass flow rate check value iteration history trace: 9.083047E-002,9.083047E-002,9.083047E-002,9.083047E-002,9.083047E-002,9.083047E-002,9.083047E-002,9.083047E-002,9.083047E-002,9.083047E-002,
   **   ~~~   ** Supply-to-demand interface deck 1 mass flow rate check value iteration history trace: 9.083047E-002,9.083047E-002,9.083047E-002,9.083047E-002,9.083047E-002,9.083047E-002,9.083047E-002,9.083047E-002,9.083047E-002,9.083047E-002,
   **   ~~~   ** Air System Named = CENTRAL SYSTEM did not converge for energy
   **   ~~~   ** Check values should be zero. Most Recent values listed first.
   **   ~~~   ** Demand-to-Supply interface energy check value iteration history trace: 1700.112063,1700.112063,1700.112063,1700.112063,1700.112063,1700.112063,1700.112062,1700.112062,1700.112062,1700.112062,
   **   ~~~   ** Supply-to-demand interface deck 1 energy check value iteration history trace: 2607.439249,2607.439249,2607.439249,2607.439249,2607.439249,2607.439248,2607.439248,2607.439248,2607.439248,2607.439248,
   ** Warning ** SimHVAC: Maximum iterations (20) exceeded for all HVAC loops, at ANNUAL, 04/04 17:50 - 17:55
   **   ~~~   ** The solution for one or more of the Air Loop HVAC systems did not appear to converge
   **   ~~~   ** Air System Named = CENTRAL SYSTEM did not converge for mass flow rate
   **   ~~~   ** Check values should be zero. Most Recent values listed first.
   **   ~~~   ** Demand-to-Supply interface mass flow rate check value iteration history trace: 6.987929E-002,6.987929E-002,6.987929E-002,6.987929E-002,6.987929E-002,6.987929E-002,6.987929E-002,6.987929E-002,6.987929E-002,6.987929E-002,
   **   ~~~   ** Supply-to-demand interface deck 1 mass flow rate check value iteration history trace: 6.987929E-002,6.987929E-002,6.987929E-002,6.987929E-002,6.987929E-002,6.987929E-002,6.987929E-002,6.987929E-002,6.987929E-002,6.987929E-002,
   **   ~~~   ** Air System Named = CENTRAL SYSTEM did not converge for energy
   **   ~~~   ** Check values should be zero. Most Recent values listed first.
   **   ~~~   ** Demand-to-Supply interface energy check value iteration history trace: 1393.668303,1393.668303,1393.668303,1393.668303,1393.668303,1393.668303,1393.668303,1393.668303,1393.668303,1393.668303,
   **   ~~~   ** Supply-to-demand interface deck 1 energy check value iteration history trace: 2391.588311,2391.588311,2391.588311,2391.588311,2391.588311,2391.588311,2391.588310,2391.588310,2391.588310,2391.588310,
   ** Warning ** SimHVAC: Maximum iterations (20) exceeded for all HVAC loops, at ANNUAL, 04/06 23:00 - 23:08
   **   ~~~   ** The solution for one or more of the Air Loop HVAC systems did not appear to converge
   **   ~~~   ** Air System Named = CENTRAL SYSTEM did not converge for mass flow rate
   **   ~~~   ** Check values should be zero. Most Recent values listed first.
   **   ~~~   ** Demand-to-Supply interface mass flow rate check value iteration history trace: 5.508181E-002,5.508181E-002,5.508181E-002,5.508181E-002,5.508181E-002,5.508181E-002,5.508181E-002,5.508181E-002,5.508181E-002,5.508181E-002,
   **   ~~~   ** Supply-to-demand interface deck 1 mass flow rate check value iteration history trace: 5.508181E-002,5.508181E-002,5.508181E-002,5.508181E-002,5.508181E-002,5.508181E-002,5.508181E-002,5.508181E-002,5.508181E-002,5.508181E-002,
   **   ~~~   ** Air System Named = CENTRAL SYSTEM did not converge for energy
   **   ~~~   ** Check values should be zero. Most Recent values listed first.
   **   ~~~   ** Demand-to-Supply interface energy check value iteration history trace: 1028.802617,1028.802616,1028.802616,1028.802616,1028.802616,1028.802616,1028.802616,1028.802616,1028.802616,1028.802616,
   **   ~~~   ** Supply-to-demand interface deck 1 energy check value iteration history trace: 1803.205168,1803.205167,1803.205167,1803.205167,1803.205167,1803.205167,1803.205167,1803.205167,1803.205167,1803.205167,
   ** Warning ** SimHVAC: Maximum iterations (20) exceeded for all HVAC loops, at ANNUAL, 04/14 09:17 - 09:20
   **   ~~~   ** The solution for one or more of the Air Loop HVAC systems did not appear to converge
   **   ~~~   ** Air System Named = CENTRAL SYSTEM did not converge for mass flow rate
   **   ~~~   ** Check values should be zero. Most Recent values listed first.
   **   ~~~   ** Demand-to-Supply interface mass flow rate check value iteration history trace: 8.086000E-002,8.086000E-002,8.086000E-002,8.086000E-002,8.086000E-002,8.086000E-002,8.086000E-002,8.086000E-002,8.086000E-002,8.086000E-002,
   **   ~~~   ** Supply-to-demand interface deck 1 mass flow rate check value iteration history trace: 8.086000E-002,8.086000E-002,8.086000E-002,8.086000E-002,8.086000E-002,8.086000E-002,8.086000E-002,8.086000E-002,8.086000E-002,8.086000E-002,
   **   ~~~   ** Air System Named = CENTRAL SYSTEM did not converge for energy
   **   ~~~   ** Check values should be zero. Most Recent values listed first.
   **   ~~~   ** Demand-to-Supply interface energy check value iteration history trace: 1602.524957,1602.524957,1602.524957,1602.524957,1602.524957,1602.524957,1602.524957,1602.524957,1602.524957,1602.524957,
   **   ~~~   ** Supply-to-demand interface deck 1 energy check value iteration history trace: 2782.603400,2782.603399,2782.603399,2782.603399,2782.603399,2782.603399,2782.603399,2782.603399,2782.603399,2782.603399,
   ************* Simulation Error Summary *************
   ** Warning ** The following Report Variables were requested but not generated -- check.rdd file
   **   ~~~   ** Either the IDF did not contain these elements, the variable name is misspelled,
   **   ~~~   ** or the requested variable is an advanced output which requires Output : Diagnostics, DisplayAdvancedReportVariables;
   ************* Key=*, VarName=BASEBOARD TOTAL HEATING ENERGY, Frequency=
   ************* Key=*, VarName=WATER HEATER NATURALGAS ENERGY, Frequency=
   ************* Key=*, VarName=COOLING COIL TOTAL HEATING ENERGY, Frequency=
   ************* There are 34 unused schedules in input.
   ************* There are 388 unused week schedules in input.
   ************* There are 396 unused day schedules in input.
   ************* Use Output:Diagnostics,DisplayUnusedSchedules; to see them.
   *************
   ************* ===== Recurring Error Summary =====
   ************* The following recurring error messages occurred.
   *************
   *************  ** Warning ** "TOTAL HOT WATER LOAD" - Target water temperature should be less than or equal to the hot water temperature error continues...
   *************  **   ~~~   **   This error occurred 142387 total times;
   *************  **   ~~~   **   during Warmup 0 times;
   *************  **   ~~~   **   during Sizing 0 times.
   *************  **   ~~~   **   Max=12.762668  Min=9.800727E-004
   *************
   *************  ** Warning ** SimHVAC: Exceeding Maximum iterations for all HVAC loops, during ANNUAL continues
   *************  **   ~~~   **   This error occurred 22 total times;
   *************  **   ~~~   **   during Warmup 0 times;
   *************  **   ~~~   **   during Sizing 0 times.
   *************
   *************
   ************* ===== Final Error Summary =====
   ************* The following error categories occurred.  Consider correcting or noting.
   ************* Nominally Unused Constructions
   ************* ..The nominally unused constructions warning is provided to alert you to potential conditions that can cause
   ************* ..extra time during simulation. Each construction is calculated by the algorithm indicated in the HeatBalanceAlgorithm
   ************* ..object. You may remove the constructions indicated (when you use the DisplayExtraWarnings option).
   *************
   ************* EnergyPlus Warmup Error Summary. During Warmup: 1 Warning; 0 Severe Errors.
   ************* EnergyPlus Sizing Error Summary. During Sizing: 4 Warning; 0 Severe Errors.
   ************* EnergyPlus Completed Successfully-- 142440 Warning; 0 Severe Errors; Elapsed Time=00hr 01min 28.89sec
