Program Version,EnergyPlus, Version 22.2.0-c249759bad, YMD=2023.09.01 19:58,
   ************* Beginning Zone Sizing Calculations
   ** Warning ** ProcessScheduleInput: Schedule:Constant="ALWAYS ON DISCRETE", Schedule Type Limits Name="ONOFF" not found -- will not be validated
   ** Warning ** Foundation:Kiva="KIVA FOUNDATION", no Interior Horizontal Insulation Material Name defined
   **   ~~~   ** Interior Horizontal Insulation Depth will not be used.
   ** Warning ** CheckUsedConstructions: There are 15 nominally unused constructions in input.
   **   ~~~   ** Each Unused construction is shown.
   ************* Construction=INTERIOR FLOOR
   ************* Construction=INTERIOR WINDOW
   ************* Construction=EXTERIOR DOOR
   ************* Construction=INTERIOR DOOR
   ************* Construction=GABLE CONSTRUCTION
   ************* Construction=CRAWL_FLOOR
   ************* Construction=INSULATED PIPE
   ************* Construction=PLAIN PIPE
   ************* Construction=TDD PIPE
   ************* Construction=TDD DOME
   ************* Construction=TDD DIFFUSER
   ************* Construction=CRAWL WALL
   ************* Construction=CEILING-FLOOR-LAYER
   ************* Construction=SLAB CONSTRUCTION W FULL R10 INSULATION
   ************* Construction=SLAB CONSTRUCTION W FULL R5 INSULATION
   ** Warning ** GetDXCoils: Coil:Heating:DX:SingleSpeed="DX_HEATING_COIL" curve values
   **   ~~~   ** ... Defrost Energy Input Ratio Function of Temperature Curve Name = DEFROSTEIR output is not equal to 1.0 (+ or - 10%) at rated conditions.
   **   ~~~   ** ... Curve output at rated conditions = 0.152
   ************* Beginning System Sizing Calculations
   ************* Beginning Plant Sizing Calculations
   ** Warning ** Coil:WaterHeating:AirToWaterHeatPump:Wrapped "HEAT PUMP WATER HEATER EVAPORATOR": Rated air volume flow rate per watt of rated total water heating capacity is out of range
   **   ~~~   ** Min Rated Vol Flow Per Watt=[4.027E-005], Rated Vol Flow Per Watt=[1.510E-004], Max Rated Vol Flow Per Watt=[8.056E-005]. See Input-Output Reference Manual for valid range.
   ************* SizeFan: : Potential issue with equipment sizing for Fan:OnOff HEAT PUMP WATER HEATER FAN
   **   ~~~   ** User-Specified Maximum Flow Rate [m3/s] = 0.22653
   **   ~~~   ** differs from Design Size Maximum Flow Rate [m3/s] = 7.55250E-002
   **   ~~~   ** This may, or may not, indicate mismatched component sizes.
   **   ~~~   ** Verify that the value entered is intended and is consistent with other components.
   ** Warning ** Water heater = WATER HEATER TANK:  Recovery Efficiency and Energy Factor could not be calculated during the test for standard ratings
   **   ~~~   ** Setpoint was never recovered and/or heater never turned on
   ** Warning ** Check input. Pump nominal power or motor efficiency is set to 0, for pump=MAINS PRESSURE
   ** Warning ** Output:Meter: invalid Key Name="ELECTRIC_RANGE:INTERIOREQUIPMENT:ELECTRICITY" - not found.
   ** Warning ** Output:Meter: invalid Key Name="ELECTRIC_DRYER:INTERIOREQUIPMENT:ELECTRICITY" - not found.
   ** Warning ** Output:Meter: invalid Key Name="HEATRECOVERY:ELECTRICITY" - not found.
   ** Warning ** Output:Meter: invalid Key Name="HEATING:NATURALGAS" - not found.
   ** Warning ** Output:Meter: invalid Key Name="WATERSYSTEMS:NATURALGAS" - not found.
   ** Warning ** Output:Meter: invalid Key Name="PROPANE:FACILITY" - not found.
   ** Warning ** Output:Meter: invalid Key Name="HEATING:PROPANE" - not found.
   ************* Testing Individual Branch Integrity
   ************* All Branches passed integrity testing
   ************* Testing Individual Supply Air Path Integrity
   ************* All Supply Air Paths passed integrity testing
   ************* Testing Individual Return Air Path Integrity
   ************* All Return Air Paths passed integrity testing
   ************* No node connection errors were found.
   ************* Beginning Simulation
   ** Warning ** AirflowNetwork::Solver::validate_distribution: Heat pump water heater is simulated along with an AirflowNetwork but is not included in the AirflowNetwork.
   ** Warning ** CalcEquipmentFlowRates: "TOTAL HOT WATER LOAD" - Target water temperature is greater than the hot water temperature by (4.15 C)
   **   ~~~   **  Environment=EXTREME_WINTER, at Simulation time=12/22 07:00 - 07:15
   **   ~~~   ** ...target water temperature     = 53.33 C
   **   ~~~   ** ...hot water temperature        = 49.18 C
   **   ~~~   ** ...Target water temperature should be less than or equal to the hot water temperature. Verify temperature setpoints and schedules.
   ** Warning ** SimHVAC: Maximum iterations (20) exceeded for all HVAC loops, at EXTREME_WINTER, 01/05 10:20 - 10:22
   **   ~~~   ** The solution for one or more of the Air Loop HVAC systems did not appear to converge
   **   ~~~   ** Air System Named = CENTRAL SYSTEM did not converge for mass flow rate
   **   ~~~   ** Check values should be zero. Most Recent values listed first.
   **   ~~~   ** Demand-to-Supply interface mass flow rate check value iteration history trace: 7.230357E-002,7.230357E-002,7.230357E-002,7.230357E-002,7.230357E-002,7.230357E-002,7.230357E-002,7.230357E-002,7.230357E-002,7.230357E-002,
   **   ~~~   ** Supply-to-demand interface deck 1 mass flow rate check value iteration history trace: 7.230357E-002,7.230357E-002,7.230357E-002,7.230357E-002,7.230357E-002,7.230357E-002,7.230357E-002,7.230357E-002,7.230357E-002,7.230357E-002,
   **   ~~~   ** Air System Named = CENTRAL SYSTEM did not converge for energy
   **   ~~~   ** Check values should be zero. Most Recent values listed first.
   **   ~~~   ** Demand-to-Supply interface energy check value iteration history trace: 1432.891874,1432.891874,1432.891874,1432.891874,1432.891874,1432.891874,1432.891874,1432.891874,1432.891874,1432.891874,
   **   ~~~   ** Supply-to-demand interface deck 1 energy check value iteration history trace: 2437.611530,2437.611530,2437.611530,2437.611530,2437.611530,2437.611529,2437.611529,2437.611529,2437.611529,2437.611529,
   ** Warning ** SimHVAC: Maximum iterations (20) exceeded for all HVAC loops, at ANNUAL, 01/04 11:05 - 11:08
   **   ~~~   ** The solution for one or more of the Air Loop HVAC systems did not appear to converge
   **   ~~~   ** Air System Named = CENTRAL SYSTEM did not converge for mass flow rate
   **   ~~~   ** Check values should be zero. Most Recent values listed first.
   **   ~~~   ** Demand-to-Supply interface mass flow rate check value iteration history trace: 6.819057E-002,6.819057E-002,6.819057E-002,6.819057E-002,6.819057E-002,6.819057E-002,6.819057E-002,6.819057E-002,6.819057E-002,6.819057E-002,
   **   ~~~   ** Supply-to-demand interface deck 1 mass flow rate check value iteration history trace: 6.819057E-002,6.819057E-002,6.819057E-002,6.819057E-002,6.819057E-002,6.819057E-002,6.819057E-002,6.819057E-002,6.819057E-002,6.819057E-002,
   **   ~~~   ** Air System Named = CENTRAL SYSTEM did not converge for energy
   **   ~~~   ** Check values should be zero. Most Recent values listed first.
   **   ~~~   ** Demand-to-Supply interface energy check value iteration history trace: 1351.372991,1351.372991,1351.372991,1351.372991,1351.372991,1351.372991,1351.372991,1351.372991,1351.372991,1351.372991,
   **   ~~~   ** Supply-to-demand interface deck 1 energy check value iteration history trace: 2312.838469,2312.838469,2312.838469,2312.838469,2312.838469,2312.838469,2312.838469,2312.838468,2312.838468,2312.838468,
   ** Warning ** SimHVAC: Maximum iterations (20) exceeded for all HVAC loops, at ANNUAL, 01/19 11:15 - 11:20
   **   ~~~   ** The solution for one or more of the Air Loop HVAC systems did not appear to converge
   **   ~~~   ** Air System Named = CENTRAL SYSTEM did not converge for mass flow rate
   **   ~~~   ** Check values should be zero. Most Recent values listed first.
   **   ~~~   ** Demand-to-Supply interface mass flow rate check value iteration history trace: 5.418178E-002,5.418178E-002,5.418178E-002,5.418178E-002,5.418178E-002,5.418178E-002,5.418178E-002,5.418178E-002,5.418178E-002,5.418178E-002,
   **   ~~~   ** Supply-to-demand interface deck 1 mass flow rate check value iteration history trace: 5.418178E-002,5.418178E-002,5.418178E-002,5.418178E-002,5.418178E-002,5.418178E-002,5.418178E-002,5.418178E-002,5.418178E-002,5.418178E-002,
   **   ~~~   ** Air System Named = CENTRAL SYSTEM did not converge for energy
   **   ~~~   ** Check values should be zero. Most Recent values listed first.
   **   ~~~   ** Demand-to-Supply interface energy check value iteration history trace: 1067.036395,1067.036395,1067.036395,1067.036395,1067.036395,1067.036395,1067.036395,1067.036395,1067.036395,1067.036395,
   **   ~~~   ** Supply-to-demand interface deck 1 energy check value iteration history trace: 1904.340183,1904.340183,1904.340183,1904.340183,1904.340183,1904.340183,1904.340183,1904.340183,1904.340183,1904.340183,
   ** Warning ** SimHVAC: Maximum iterations (20) exceeded for all HVAC loops, at ANNUAL, 01/22 11:30 - 11:34
   **   ~~~   ** The solution for one or more of the Air Loop HVAC systems did not appear to converge
   **   ~~~   ** Air System Named = CENTRAL SYSTEM did not converge for mass flow rate
   **   ~~~   ** Check values should be zero. Most Recent values listed first.
   **   ~~~   ** Demand-to-Supply interface mass flow rate check value iteration history trace: 6.302564E-002,6.302564E-002,6.302564E-002,6.302564E-002,6.302564E-002,6.302564E-002,6.302564E-002,6.302564E-002,6.302564E-002,6.302564E-002,
   **   ~~~   ** Supply-to-demand interface deck 1 mass flow rate check value iteration history trace: 6.302564E-002,6.302564E-002,6.302564E-002,6.302564E-002,6.302564E-002,6.302564E-002,6.302564E-002,6.302564E-002,6.302564E-002,6.302564E-002,
   **   ~~~   ** Air System Named = CENTRAL SYSTEM did not converge for energy
   **   ~~~   ** Check values should be zero. Most Recent values listed first.
   **   ~~~   ** Demand-to-Supply interface energy check value iteration history trace: 1248.950074,1248.950074,1248.950074,1248.950074,1248.950074,1248.950074,1248.950074,1248.950074,1248.950073,1248.950073,
   **   ~~~   ** Supply-to-demand interface deck 1 energy check value iteration history trace: 2144.573852,2144.573852,2144.573852,2144.573852,2144.573852,2144.573851,2144.573851,2144.573851,2144.573851,2144.573851,
   ** Warning ** SimHVAC: Maximum iterations (20) exceeded for all HVAC loops, at ANNUAL, 01/25 12:00 - 12:04
   **   ~~~   ** The solution for one or more of the Air Loop HVAC systems did not appear to converge
   **   ~~~   ** Air System Named = CENTRAL SYSTEM did not converge for mass flow rate
   **   ~~~   ** Check values should be zero. Most Recent values listed first.
   **   ~~~   ** Demand-to-Supply interface mass flow rate check value iteration history trace: 6.120713E-002,6.120713E-002,6.120713E-002,6.120713E-002,6.120713E-002,6.120713E-002,6.120713E-002,6.120713E-002,6.120713E-002,6.120713E-002,
   **   ~~~   ** Supply-to-demand interface deck 1 mass flow rate check value iteration history trace: 6.120713E-002,6.120713E-002,6.120713E-002,6.120713E-002,6.120713E-002,6.120713E-002,6.120713E-002,6.120713E-002,6.120713E-002,6.120713E-002,
   **   ~~~   ** Air System Named = CENTRAL SYSTEM did not converge for energy
   **   ~~~   ** Check values should be zero. Most Recent values listed first.
   **   ~~~   ** Demand-to-Supply interface energy check value iteration history trace: 1212.930356,1212.930356,1212.930356,1212.930356,1212.930355,1212.930355,1212.930355,1212.930355,1212.930355,1212.930355,
   **   ~~~   ** Supply-to-demand interface deck 1 energy check value iteration history trace: 2046.669557,2046.669557,2046.669557,2046.669557,2046.669557,2046.669557,2046.669557,2046.669557,2046.669557,2046.669556,
   ** Warning ** SimHVAC: Maximum iterations (20) exceeded for all HVAC loops, at ANNUAL, 01/26 03:15 - 03:30
   **   ~~~   ** The solution for one or more of the Air Loop HVAC systems did not appear to converge
   **   ~~~   ** Air System Named = CENTRAL SYSTEM did not converge for mass flow rate
   **   ~~~   ** Check values should be zero. Most Recent values listed first.
   **   ~~~   ** Demand-to-Supply interface mass flow rate check value iteration history trace: 8.129404E-002,8.129404E-002,8.129404E-002,8.129404E-002,8.129404E-002,8.129404E-002,8.129404E-002,8.129404E-002,8.129404E-002,8.129404E-002,
   **   ~~~   ** Supply-to-demand interface deck 1 mass flow rate check value iteration history trace: 8.129404E-002,8.129404E-002,8.129404E-002,8.129404E-002,8.129404E-002,8.129404E-002,8.129404E-002,8.129404E-002,8.129404E-002,8.129404E-002,
   **   ~~~   ** Air System Named = CENTRAL SYSTEM did not converge for energy
   **   ~~~   ** Check values should be zero. Most Recent values listed first.
   **   ~~~   ** Demand-to-Supply interface energy check value iteration history trace: 1532.180741,1532.180741,1532.180741,1532.180741,1532.180741,1532.180741,1532.180741,1532.180741,1532.180740,1532.180740,
   **   ~~~   ** Supply-to-demand interface deck 1 energy check value iteration history trace: 2317.095360,2317.095360,2317.095360,2317.095360,2317.095360,2317.095359,2317.095359,2317.095359,2317.095359,2317.095359,
   ** Warning ** SimHVAC: Maximum iterations (20) exceeded for all HVAC loops, at ANNUAL, 02/04 09:00 - 09:04
   **   ~~~   ** The solution for one or more of the Air Loop HVAC systems did not appear to converge
   **   ~~~   ** Air System Named = CENTRAL SYSTEM did not converge for mass flow rate
   **   ~~~   ** Check values should be zero. Most Recent values listed first.
   **   ~~~   ** Demand-to-Supply interface mass flow rate check value iteration history trace: 7.778999E-002,7.778999E-002,7.778999E-002,7.778999E-002,7.778999E-002,7.778999E-002,7.778999E-002,7.778999E-002,7.778999E-002,7.778999E-002,
   **   ~~~   ** Supply-to-demand interface deck 1 mass flow rate check value iteration history trace: 7.778999E-002,7.778999E-002,7.778999E-002,7.778999E-002,7.778999E-002,7.778999E-002,7.778999E-002,7.778999E-002,7.778999E-002,7.778999E-002,
   **   ~~~   ** Air System Named = CENTRAL SYSTEM did not converge for energy
   **   ~~~   ** Check values should be zero. Most Recent values listed first.
   **   ~~~   ** Demand-to-Supply interface energy check value iteration history trace: 1541.474295,1541.474295,1541.474295,1541.474295,1541.474295,1541.474295,1541.474295,1541.474295,1541.474295,1541.474295,
   **   ~~~   ** Supply-to-demand interface deck 1 energy check value iteration history trace: 2603.882875,2603.882875,2603.882875,2603.882875,2603.882875,2603.882875,2603.882875,2603.882875,2603.882874,2603.882874,
   ** Warning ** SimHVAC: Maximum iterations (20) exceeded for all HVAC loops, at ANNUAL, 02/13 02:30 - 02:45
   **   ~~~   ** The solution for one or more of the Air Loop HVAC systems did not appear to converge
   **   ~~~   ** Air System Named = CENTRAL SYSTEM did not converge for mass flow rate
   **   ~~~   ** Check values should be zero. Most Recent values listed first.
   **   ~~~   ** Demand-to-Supply interface mass flow rate check value iteration history trace: 5.488309E-002,5.488309E-002,5.488309E-002,5.488309E-002,5.488309E-002,5.488309E-002,5.488309E-002,5.488309E-002,5.488309E-002,5.488309E-002,
   **   ~~~   ** Supply-to-demand interface deck 1 mass flow rate check value iteration history trace: 5.488309E-002,5.488309E-002,5.488309E-002,5.488309E-002,5.488309E-002,5.488309E-002,5.488309E-002,5.488309E-002,5.488309E-002,5.488309E-002,
   **   ~~~   ** Air System Named = CENTRAL SYSTEM did not converge for energy
   **   ~~~   ** Check values should be zero. Most Recent values listed first.
   **   ~~~   ** Demand-to-Supply interface energy check value iteration history trace: 1029.233873,1029.233873,1029.233873,1029.233873,1029.233873,1029.233873,1029.233873,1029.233873,1029.233872,1029.233872,
   **   ~~~   ** Supply-to-demand interface deck 1 energy check value iteration history trace: 1803.694752,1803.694752,1803.694752,1803.694752,1803.694752,1803.694752,1803.694752,1803.694752,1803.694751,1803.694751,
   ** Warning ** SimHVAC: Maximum iterations (20) exceeded for all HVAC loops, at ANNUAL, 02/27 09:42 - 09:43
   **   ~~~   ** The solution for one or more of the Air Loop HVAC systems did not appear to converge
   **   ~~~   ** Air System Named = CENTRAL SYSTEM did not converge for mass flow rate
   **   ~~~   ** Check values should be zero. Most Recent values listed first.
   **   ~~~   ** Demand-to-Supply interface mass flow rate check value iteration history trace: 7.701509E-002,7.701509E-002,7.701509E-002,7.701509E-002,7.701509E-002,7.701509E-002,7.701509E-002,7.701509E-002,7.701509E-002,7.701509E-002,
   **   ~~~   ** Supply-to-demand interface deck 1 mass flow rate check value iteration history trace: 7.701509E-002,7.701509E-002,7.701509E-002,7.701509E-002,7.701509E-002,7.701509E-002,7.701509E-002,7.701509E-002,7.701509E-002,7.701509E-002,
   **   ~~~   ** Air System Named = CENTRAL SYSTEM did not converge for energy
   **   ~~~   ** Check values should be zero. Most Recent values listed first.
   **   ~~~   ** Demand-to-Supply interface energy check value iteration history trace: 1522.539399,1522.539399,1522.539399,1522.539399,1522.539399,1522.539398,1522.539398,1522.539398,1522.539398,1522.539398,
   **   ~~~   ** Supply-to-demand interface deck 1 energy check value iteration history trace: 2580.209910,2580.209910,2580.209909,2580.209909,2580.209909,2580.209909,2580.209909,2580.209909,2580.209909,2580.209909,
   ** Warning ** SimHVAC: Maximum iterations (20) exceeded for all HVAC loops, at ANNUAL, 02/28 09:45 - 09:52
   **   ~~~   ** The solution for one or more of the Air Loop HVAC systems did not appear to converge
   **   ~~~   ** Air System Named = CENTRAL SYSTEM did not converge for mass flow rate
   **   ~~~   ** Check values should be zero. Most Recent values listed first.
   **   ~~~   ** Demand-to-Supply interface mass flow rate check value iteration history trace: 7.505498E-002,7.505498E-002,7.505498E-002,7.505498E-002,7.505498E-002,7.505498E-002,7.505498E-002,7.505498E-002,7.505498E-002,7.505498E-002,
   **   ~~~   ** Supply-to-demand interface deck 1 mass flow rate check value iteration history trace: 7.505498E-002,7.505498E-002,7.505498E-002,7.505498E-002,7.505498E-002,7.505498E-002,7.505498E-002,7.505498E-002,7.505498E-002,7.505498E-002,
   **   ~~~   ** Air System Named = CENTRAL SYSTEM did not converge for energy
   **   ~~~   ** Check values should be zero. Most Recent values listed first.
   **   ~~~   ** Demand-to-Supply interface energy check value iteration history trace: 1487.141300,1487.141299,1487.141299,1487.141299,1487.141298,1487.141298,1487.141298,1487.141298,1487.141297,1487.141297,
   **   ~~~   ** Supply-to-demand interface deck 1 energy check value iteration history trace: 2572.347583,2572.347583,2572.347582,2572.347582,2572.347581,2572.347581,2572.347580,2572.347580,2572.347579,2572.347579,
   **   ~~~   ** Node named ZONE INLET NODE shows oscillating temperatures across iterations with a repeated value of 34.107631
   **   ~~~   ** Node named ZONE INLET NODE temperature [C] iteration history trace (most recent first): 34.107631,34.107631,34.107631,34.107631,34.107630,34.107630,34.107630,34.107630,34.107629,34.107629,
   ** Warning ** SimHVAC: Maximum iterations (20) exceeded for all HVAC loops, at ANNUAL, 03/05 07:45 - 07:52
   **   ~~~   ** The solution for one or more of the Air Loop HVAC systems did not appear to converge
   **   ~~~   ** Air System Named = CENTRAL SYSTEM did not converge for mass flow rate
   **   ~~~   ** Check values should be zero. Most Recent values listed first.
   **   ~~~   ** Demand-to-Supply interface mass flow rate check value iteration history trace: 5.033972E-002,5.033972E-002,5.033972E-002,5.033972E-002,5.033972E-002,5.033972E-002,5.033972E-002,5.033972E-002,5.033972E-002,5.033972E-002,
   **   ~~~   ** Supply-to-demand interface deck 1 mass flow rate check value iteration history trace: 5.033972E-002,5.033972E-002,5.033972E-002,5.033972E-002,5.033972E-002,5.033972E-002,5.033972E-002,5.033972E-002,5.033972E-002,5.033972E-002,
   **   ~~~   ** Air System Named = CENTRAL SYSTEM did not converge for energy
   **   ~~~   ** Check values should be zero. Most Recent values listed first.
   **   ~~~   ** Demand-to-Supply interface energy check value iteration history trace: 997.518676,997.518676,997.518676,997.518676,997.518676,997.518676,997.518676,997.518676,997.518676,997.518676,
   **   ~~~   ** Supply-to-demand interface deck 1 energy check value iteration history trace: 1696.997323,1696.997323,1696.997323,1696.997323,1696.997323,1696.997323,1696.997322,1696.997322,1696.997322,1696.997322,
   ** Warning ** SimHVAC: Maximum iterations (20) exceeded for all HVAC loops, at ANNUAL, 03/07 09:30 - 09:32
   **   ~~~   ** The solution for one or more of the Air Loop HVAC systems did not appear to converge
   **   ~~~   ** Air System Named = CENTRAL SYSTEM did not converge for mass flow rate
   **   ~~~   ** Check values should be zero. Most Recent values listed first.
   **   ~~~   ** Demand-to-Supply interface mass flow rate check value iteration history trace: 6.844774E-002,6.844774E-002,6.844774E-002,6.844774E-002,6.844774E-002,6.844774E-002,6.844774E-002,6.844774E-002,6.844774E-002,6.844774E-002,
   **   ~~~   ** Supply-to-demand interface deck 1 mass flow rate check value iteration history trace: 6.844774E-002,6.844774E-002,6.844774E-002,6.844774E-002,6.844774E-002,6.844774E-002,6.844774E-002,6.844774E-002,6.844774E-002,6.844774E-002,
   **   ~~~   ** Air System Named = CENTRAL SYSTEM did not converge for energy
   **   ~~~   ** Check values should be zero. Most Recent values listed first.
   **   ~~~   ** Demand-to-Supply interface energy check value iteration history trace: 1352.218597,1352.218597,1352.218597,1352.218597,1352.218597,1352.218597,1352.218597,1352.218597,1352.218597,1352.218597,
   **   ~~~   ** Supply-to-demand interface deck 1 energy check value iteration history trace: 2352.230038,2352.230038,2352.230038,2352.230038,2352.230037,2352.230037,2352.230037,2352.230037,2352.230037,2352.230037,
   ** Warning ** SimHVAC: Maximum iterations (20) exceeded for all HVAC loops, at ANNUAL, 03/08 07:45 - 08:00
   **   ~~~   ** The solution for one or more of the Air Loop HVAC systems did not appear to converge
   **   ~~~   ** Air System Named = CENTRAL SYSTEM did not converge for mass flow rate
   **   ~~~   ** Check values should be zero. Most Recent values listed first.
   **   ~~~   ** Demand-to-Supply interface mass flow rate check value iteration history trace: 6.913600E-002,6.913600E-002,6.913600E-002,6.913600E-002,6.913600E-002,6.913600E-002,6.913600E-002,6.913600E-002,6.913600E-002,6.913600E-002,
   **   ~~~   ** Supply-to-demand interface deck 1 mass flow rate check value iteration history trace: 6.913600E-002,6.913600E-002,6.913600E-002,6.913600E-002,6.913600E-002,6.913600E-002,6.913600E-002,6.913600E-002,6.913600E-002,6.913600E-002,
   **   ~~~   ** Air System Named = CENTRAL SYSTEM did not converge for energy
   **   ~~~   ** Check values should be zero. Most Recent values listed first.
   **   ~~~   ** Demand-to-Supply interface energy check value iteration history trace: 1370.323818,1370.323818,1370.323818,1370.323818,1370.323818,1370.323818,1370.323818,1370.323818,1370.323818,1370.323818,
   **   ~~~   ** Supply-to-demand interface deck 1 energy check value iteration history trace: 2291.786501,2291.786501,2291.786501,2291.786501,2291.786501,2291.786501,2291.786501,2291.786500,2291.786500,2291.786500,
   ** Warning ** SimHVAC: Maximum iterations (20) exceeded for all HVAC loops, at ANNUAL, 04/27 10:25 - 10:30
   **   ~~~   ** The solution for one or more of the Air Loop HVAC systems did not appear to converge
   **   ~~~   ** Air System Named = CENTRAL SYSTEM did not converge for mass flow rate
   **   ~~~   ** Check values should be zero. Most Recent values listed first.
   **   ~~~   ** Demand-to-Supply interface mass flow rate check value iteration history trace: 0.195221,0.195221,0.195221,0.195221,0.195221,0.195221,0.195221,0.195221,0.195221,0.195221,
   **   ~~~   ** Supply-to-demand interface deck 1 mass flow rate check value iteration history trace: 0.195221,0.195221,0.195221,0.195221,0.195221,0.195221,0.195221,0.195221,0.195221,0.195221,
   **   ~~~   ** Air System Named = CENTRAL SYSTEM did not converge for energy
   **   ~~~   ** Check values should be zero. Most Recent values listed first.
   **   ~~~   ** Demand-to-Supply interface energy check value iteration history trace: 4666.074804,4666.074805,4666.074805,4666.074805,4666.074806,4666.074806,4666.074806,4666.074807,4666.074807,4666.074808,
   **   ~~~   ** Supply-to-demand interface deck 1 energy check value iteration history trace: 2469.426860,2469.426860,2469.426860,2469.426861,2469.426861,2469.426861,2469.426861,2469.426861,2469.426861,2469.426862,
   ************* Simulation Error Summary *************
   ** Warning ** The following Report Variables were requested but not generated -- check.rdd file
   **   ~~~   ** Either the IDF did not contain these elements, the variable name is misspelled,
   **   ~~~   ** or the requested variable is an advanced output which requires Output : Diagnostics, DisplayAdvancedReportVariables;
   ************* Key=*, VarName=BASEBOARD TOTAL HEATING ENERGY, Frequency=
   ************* Key=*, VarName=WATER HEATER NATURALGAS ENERGY, Frequency=
   ************* Key=*, VarName=COOLING COIL TOTAL HEATING ENERGY, Frequency=
   ************* There are 34 unused schedules in input.
   ************* There are 388 unused week schedules in input.
   ************* There are 396 unused day schedules in input.
   ************* Use Output:Diagnostics,DisplayUnusedSchedules; to see them.
   *************
   ************* ===== Recurring Error Summary =====
   ************* The following recurring error messages occurred.
   *************
   *************  ** Warning ** "TOTAL HOT WATER LOAD" - Target water temperature should be less than or equal to the hot water temperature error continues...
   *************  **   ~~~   **   This error occurred 206363 total times;
   *************  **   ~~~   **   during Warmup 0 times;
   *************  **   ~~~   **   during Sizing 0 times.
   *************  **   ~~~   **   Max=12.17244  Min=9.359080E-004
   *************
   *************  ** Warning ** SimHVAC: Exceeding Maximum iterations for all HVAC loops, during ANNUAL continues
   *************  **   ~~~   **   This error occurred 8 total times;
   *************  **   ~~~   **   during Warmup 0 times;
   *************  **   ~~~   **   during Sizing 0 times.
   *************
   *************
   ************* ===== Final Error Summary =====
   ************* The following error categories occurred.  Consider correcting or noting.
   ************* Nominally Unused Constructions
   ************* ..The nominally unused constructions warning is provided to alert you to potential conditions that can cause
   ************* ..extra time during simulation. Each construction is calculated by the algorithm indicated in the HeatBalanceAlgorithm
   ************* ..object. You may remove the constructions indicated (when you use the DisplayExtraWarnings option).
   *************
   ************* EnergyPlus Warmup Error Summary. During Warmup: 1 Warning; 0 Severe Errors.
   ************* EnergyPlus Sizing Error Summary. During Sizing: 4 Warning; 0 Severe Errors.
   ************* EnergyPlus Completed Successfully-- 206402 Warning; 0 Severe Errors; Elapsed Time=00hr 01min 51.76sec
