Program Version,EnergyPlus, Version 22.2.0-c249759bad, YMD=2023.09.01 19:49,
   ************* Beginning Zone Sizing Calculations
   ** Warning ** ProcessScheduleInput: Schedule:Constant="ALWAYS ON DISCRETE", Schedule Type Limits Name="ONOFF" not found -- will not be validated
   ** Warning ** Foundation:Kiva="KIVA FOUNDATION", no Interior Horizontal Insulation Material Name defined
   **   ~~~   ** Interior Horizontal Insulation Depth will not be used.
   ** Warning ** CheckUsedConstructions: There are 15 nominally unused constructions in input.
   **   ~~~   ** Each Unused construction is shown.
   ************* Construction=INTERIOR FLOOR
   ************* Construction=INTERIOR WINDOW
   ************* Construction=EXTERIOR DOOR
   ************* Construction=INTERIOR DOOR
   ************* Construction=GABLE CONSTRUCTION
   ************* Construction=CRAWL_FLOOR
   ************* Construction=INSULATED PIPE
   ************* Construction=PLAIN PIPE
   ************* Construction=TDD PIPE
   ************* Construction=TDD DOME
   ************* Construction=TDD DIFFUSER
   ************* Construction=CRAWL WALL
   ************* Construction=CEILING-FLOOR-LAYER
   ************* Construction=SLAB CONSTRUCTION W FULL R10 INSULATION
   ************* Construction=SLAB CONSTRUCTION W FULL R5 INSULATION
   ** Warning ** GetDXCoils: Coil:Heating:DX:SingleSpeed="DX_HEATING_COIL" curve values
   **   ~~~   ** ... Defrost Energy Input Ratio Function of Temperature Curve Name = DEFROSTEIR output is not equal to 1.0 (+ or - 10%) at rated conditions.
   **   ~~~   ** ... Curve output at rated conditions = 0.152
   ************* Beginning System Sizing Calculations
   ************* Beginning Plant Sizing Calculations
   ** Warning ** SizeDXCoil Coil:Cooling:DX:SingleSpeed DX_COOLING_COIL
   **   ~~~   ** ...Gross Rated Total Cooling Capacity [W] will be limited by the maximum rated volume flow per rated total capacity ratio.
   **   ~~~   ** ...DX coil volume flow rate ( m3/s ) = 0.410385
   **   ~~~   ** ...Requested capacity ( W ) = 6360.961
   **   ~~~   ** ...Requested flow/capacity ratio ( m3/s/W ) = 6.451E-005
   **   ~~~   ** ...Maximum flow/capacity ratio ( m3/s/W ) = 6.041E-005
   **   ~~~   ** ...Adjusted capacity ( W ) = 6793.338
   ** Warning ** Coil:WaterHeating:AirToWaterHeatPump:Wrapped "HEAT PUMP WATER HEATER EVAPORATOR": Rated air volume flow rate per watt of rated total water heating capacity is out of range
   **   ~~~   ** Min Rated Vol Flow Per Watt=[4.027E-005], Rated Vol Flow Per Watt=[1.510E-004], Max Rated Vol Flow Per Watt=[8.056E-005]. See Input-Output Reference Manual for valid range.
   ************* SizeFan: : Potential issue with equipment sizing for Fan:OnOff HEAT PUMP WATER HEATER FAN
   **   ~~~   ** User-Specified Maximum Flow Rate [m3/s] = 0.22653
   **   ~~~   ** differs from Design Size Maximum Flow Rate [m3/s] = 7.55250E-002
   **   ~~~   ** This may, or may not, indicate mismatched component sizes.
   **   ~~~   ** Verify that the value entered is intended and is consistent with other components.
   ** Warning ** Water heater = WATER HEATER TANK:  Recovery Efficiency and Energy Factor could not be calculated during the test for standard ratings
   **   ~~~   ** Setpoint was never recovered and/or heater never turned on
   ** Warning ** Check input. Pump nominal power or motor efficiency is set to 0, for pump=MAINS PRESSURE
   ** Warning ** Output:Meter: invalid Key Name="ELECTRIC_RANGE:INTERIOREQUIPMENT:ELECTRICITY" - not found.
   ** Warning ** Output:Meter: invalid Key Name="ELECTRIC_DRYER:INTERIOREQUIPMENT:ELECTRICITY" - not found.
   ** Warning ** Output:Meter: invalid Key Name="HEATRECOVERY:ELECTRICITY" - not found.
   ** Warning ** Output:Meter: invalid Key Name="HEATING:NATURALGAS" - not found.
   ** Warning ** Output:Meter: invalid Key Name="WATERSYSTEMS:NATURALGAS" - not found.
   ** Warning ** Output:Meter: invalid Key Name="PROPANE:FACILITY" - not found.
   ** Warning ** Output:Meter: invalid Key Name="HEATING:PROPANE" - not found.
   ************* Testing Individual Branch Integrity
   ************* All Branches passed integrity testing
   ************* Testing Individual Supply Air Path Integrity
   ************* All Supply Air Paths passed integrity testing
   ************* Testing Individual Return Air Path Integrity
   ************* All Return Air Paths passed integrity testing
   ************* No node connection errors were found.
   ************* Beginning Simulation
   ** Warning ** AirflowNetwork::Solver::validate_distribution: Heat pump water heater is simulated along with an AirflowNetwork but is not included in the AirflowNetwork.
   ** Warning ** CalcEquipmentFlowRates: "TOTAL HOT WATER LOAD" - Target water temperature is greater than the hot water temperature by (3.86 C)
   **   ~~~   **  Environment=EXTREME_WINTER, at Simulation time=01/27 06:00 - 06:15
   **   ~~~   ** ...target water temperature     = 53.33 C
   **   ~~~   ** ...hot water temperature        = 49.47 C
   **   ~~~   ** ...Target water temperature should be less than or equal to the hot water temperature. Verify temperature setpoints and schedules.
   ** Warning ** SimHVAC: Maximum iterations (20) exceeded for all HVAC loops, at EXTREME_WINTER, 02/02 17:00 - 17:15
   **   ~~~   ** The solution for one or more of the Air Loop HVAC systems did not appear to converge
   **   ~~~   ** Air System Named = CENTRAL SYSTEM did not converge for mass flow rate
   **   ~~~   ** Check values should be zero. Most Recent values listed first.
   **   ~~~   ** Demand-to-Supply interface mass flow rate check value iteration history trace: 0.101527,0.101527,0.101527,0.101527,0.101527,0.101527,0.101527,0.101527,0.101527,0.101527,
   **   ~~~   ** Supply-to-demand interface deck 1 mass flow rate check value iteration history trace: 0.101527,0.101527,0.101527,0.101527,0.101527,0.101527,0.101527,0.101527,0.101527,0.101527,
   **   ~~~   ** Air System Named = CENTRAL SYSTEM did not converge for energy
   **   ~~~   ** Check values should be zero. Most Recent values listed first.
   **   ~~~   ** Demand-to-Supply interface energy check value iteration history trace: 2001.522905,2001.522905,2001.522905,2001.522905,2001.522904,2001.522904,2001.522904,2001.522904,2001.522904,2001.522904,
   **   ~~~   ** Supply-to-demand interface deck 1 energy check value iteration history trace: 2969.483543,2969.483543,2969.483543,2969.483542,2969.483542,2969.483542,2969.483542,2969.483542,2969.483541,2969.483541,
   ** Warning ** SimHVAC: Maximum iterations (20) exceeded for all HVAC loops, at ANNUAL, 01/01 18:15 - 18:30
   **   ~~~   ** The solution for one or more of the Air Loop HVAC systems did not appear to converge
   **   ~~~   ** Air System Named = CENTRAL SYSTEM did not converge for mass flow rate
   **   ~~~   ** Check values should be zero. Most Recent values listed first.
   **   ~~~   ** Demand-to-Supply interface mass flow rate check value iteration history trace: 9.872670E-002,9.872670E-002,9.872670E-002,9.872670E-002,9.872670E-002,9.872670E-002,9.872670E-002,9.872670E-002,9.872670E-002,9.872670E-002,
   **   ~~~   ** Supply-to-demand interface deck 1 mass flow rate check value iteration history trace: 9.872670E-002,9.872670E-002,9.872670E-002,9.872670E-002,9.872670E-002,9.872670E-002,9.872670E-002,9.872670E-002,9.872670E-002,9.872670E-002,
   **   ~~~   ** Air System Named = CENTRAL SYSTEM did not converge for energy
   **   ~~~   ** Check values should be zero. Most Recent values listed first.
   **   ~~~   ** Demand-to-Supply interface energy check value iteration history trace: 1948.729260,1948.729260,1948.729259,1948.729259,1948.729259,1948.729259,1948.729259,1948.729259,1948.729259,1948.729259,
   **   ~~~   ** Supply-to-demand interface deck 1 energy check value iteration history trace: 2996.722198,2996.722198,2996.722198,2996.722198,2996.722198,2996.722197,2996.722197,2996.722197,2996.722197,2996.722197,
   ** Warning ** SimHVAC: Maximum iterations (20) exceeded for all HVAC loops, at ANNUAL, 01/23 12:11 - 12:15
   **   ~~~   ** The solution for one or more of the Air Loop HVAC systems did not appear to converge
   **   ~~~   ** Air System Named = CENTRAL SYSTEM did not converge for mass flow rate
   **   ~~~   ** Check values should be zero. Most Recent values listed first.
   **   ~~~   ** Demand-to-Supply interface mass flow rate check value iteration history trace: 6.959954E-002,6.959954E-002,6.959954E-002,6.959954E-002,6.959954E-002,6.959954E-002,6.959954E-002,6.959954E-002,6.959954E-002,6.959954E-002,
   **   ~~~   ** Supply-to-demand interface deck 1 mass flow rate check value iteration history trace: 6.959954E-002,6.959954E-002,6.959954E-002,6.959954E-002,6.959954E-002,6.959954E-002,6.959954E-002,6.959954E-002,6.959954E-002,6.959954E-002,
   **   ~~~   ** Air System Named = CENTRAL SYSTEM did not converge for energy
   **   ~~~   ** Check values should be zero. Most Recent values listed first.
   **   ~~~   ** Demand-to-Supply interface energy check value iteration history trace: 1371.308096,1371.308095,1371.308095,1371.308095,1371.308095,1371.308095,1371.308095,1371.308095,1371.308095,1371.308095,
   **   ~~~   ** Supply-to-demand interface deck 1 energy check value iteration history trace: 2112.015787,2112.015787,2112.015787,2112.015787,2112.015786,2112.015786,2112.015786,2112.015786,2112.015786,2112.015786,
   ** Warning ** SimHVAC: Maximum iterations (20) exceeded for all HVAC loops, at ANNUAL, 01/27 10:20 - 10:25
   **   ~~~   ** The solution for one or more of the Air Loop HVAC systems did not appear to converge
   **   ~~~   ** Air System Named = CENTRAL SYSTEM did not converge for mass flow rate
   **   ~~~   ** Check values should be zero. Most Recent values listed first.
   **   ~~~   ** Demand-to-Supply interface mass flow rate check value iteration history trace: 8.425602E-002,8.425602E-002,8.425602E-002,8.425602E-002,8.425602E-002,8.425602E-002,8.425602E-002,8.425602E-002,8.425602E-002,8.425602E-002,
   **   ~~~   ** Supply-to-demand interface deck 1 mass flow rate check value iteration history trace: 8.425602E-002,8.425602E-002,8.425602E-002,8.425602E-002,8.425602E-002,8.425602E-002,8.425602E-002,8.425602E-002,8.425602E-002,8.425602E-002,
   **   ~~~   ** Air System Named = CENTRAL SYSTEM did not converge for energy
   **   ~~~   ** Check values should be zero. Most Recent values listed first.
   **   ~~~   ** Demand-to-Supply interface energy check value iteration history trace: 1669.625074,1669.625074,1669.625074,1669.625074,1669.625074,1669.625073,1669.625073,1669.625073,1669.625073,1669.625073,
   **   ~~~   ** Supply-to-demand interface deck 1 energy check value iteration history trace: 2574.760942,2574.760941,2574.760941,2574.760941,2574.760941,2574.760941,2574.760941,2574.760940,2574.760940,2574.760940,
   ** Warning ** SimHVAC: Maximum iterations (20) exceeded for all HVAC loops, at ANNUAL, 02/03 19:15 - 19:22
   **   ~~~   ** The solution for one or more of the Air Loop HVAC systems did not appear to converge
   **   ~~~   ** Air System Named = CENTRAL SYSTEM did not converge for mass flow rate
   **   ~~~   ** Check values should be zero. Most Recent values listed first.
   **   ~~~   ** Demand-to-Supply interface mass flow rate check value iteration history trace: 8.667929E-002,8.667929E-002,8.667929E-002,8.667929E-002,8.667929E-002,8.667929E-002,8.667929E-002,8.667929E-002,8.667929E-002,8.667929E-002,
   **   ~~~   ** Supply-to-demand interface deck 1 mass flow rate check value iteration history trace: 8.667929E-002,8.667929E-002,8.667929E-002,8.667929E-002,8.667929E-002,8.667929E-002,8.667929E-002,8.667929E-002,8.667929E-002,8.667929E-002,
   **   ~~~   ** Air System Named = CENTRAL SYSTEM did not converge for energy
   **   ~~~   ** Check values should be zero. Most Recent values listed first.
   **   ~~~   ** Demand-to-Supply interface energy check value iteration history trace: 1716.773868,1716.773867,1716.773867,1716.773867,1716.773867,1716.773867,1716.773867,1716.773867,1716.773867,1716.773866,
   **   ~~~   ** Supply-to-demand interface deck 1 energy check value iteration history trace: 2570.823994,2570.823993,2570.823993,2570.823993,2570.823993,2570.823993,2570.823992,2570.823992,2570.823992,2570.823992,
   ** Warning ** SimHVAC: Maximum iterations (20) exceeded for all HVAC loops, at ANNUAL, 02/16 10:45 - 11:00
   **   ~~~   ** The solution for one or more of the Air Loop HVAC systems did not appear to converge
   **   ~~~   ** Air System Named = CENTRAL SYSTEM did not converge for mass flow rate
   **   ~~~   ** Check values should be zero. Most Recent values listed first.
   **   ~~~   ** Demand-to-Supply interface mass flow rate check value iteration history trace: 2.692019E-002,2.692019E-002,2.692019E-002,2.692019E-002,2.692019E-002,2.692019E-002,2.692019E-002,2.692019E-002,2.692019E-002,2.692019E-002,
   **   ~~~   ** Supply-to-demand interface deck 1 mass flow rate check value iteration history trace: 2.692019E-002,2.692019E-002,2.692019E-002,2.692019E-002,2.692019E-002,2.692019E-002,2.692019E-002,2.692019E-002,2.692019E-002,2.692019E-002,
   **   ~~~   ** Air System Named = CENTRAL SYSTEM did not converge for energy
   **   ~~~   ** Check values should be zero. Most Recent values listed first.
   **   ~~~   ** Demand-to-Supply interface energy check value iteration history trace: 533.460266,533.460266,533.460266,533.460266,533.460266,533.460266,533.460266,533.460266,533.460266,533.460266,
   **   ~~~   ** Supply-to-demand interface deck 1 energy check value iteration history trace: 827.407108,827.407108,827.407108,827.407108,827.407108,827.407108,827.407108,827.407108,827.407108,827.407107,
   ** Warning ** SimHVAC: Maximum iterations (20) exceeded for all HVAC loops, at ANNUAL, 02/26 10:45 - 10:49
   **   ~~~   ** The solution for one or more of the Air Loop HVAC systems did not appear to converge
   **   ~~~   ** Air System Named = CENTRAL SYSTEM did not converge for mass flow rate
   **   ~~~   ** Check values should be zero. Most Recent values listed first.
   **   ~~~   ** Demand-to-Supply interface mass flow rate check value iteration history trace: 0.101323,0.101323,0.101323,0.101323,0.101323,0.101323,0.101323,0.101323,0.101323,0.101323,
   **   ~~~   ** Supply-to-demand interface deck 1 mass flow rate check value iteration history trace: 0.101323,0.101323,0.101323,0.101323,0.101323,0.101323,0.101323,0.101323,0.101323,0.101323,
   **   ~~~   ** Air System Named = CENTRAL SYSTEM did not converge for energy
   **   ~~~   ** Check values should be zero. Most Recent values listed first.
   **   ~~~   ** Demand-to-Supply interface energy check value iteration history trace: 2007.886169,2007.886169,2007.886169,2007.886168,2007.886168,2007.886168,2007.886168,2007.886168,2007.886168,2007.886168,
   **   ~~~   ** Supply-to-demand interface deck 1 energy check value iteration history trace: 3128.351146,3128.351145,3128.351145,3128.351145,3128.351145,3128.351145,3128.351144,3128.351144,3128.351144,3128.351144,
   ** Warning ** SimHVAC: Maximum iterations (20) exceeded for all HVAC loops, at ANNUAL, 03/03 22:45 - 22:52
   **   ~~~   ** The solution for one or more of the Air Loop HVAC systems did not appear to converge
   **   ~~~   ** Air System Named = CENTRAL SYSTEM did not converge for mass flow rate
   **   ~~~   ** Check values should be zero. Most Recent values listed first.
   **   ~~~   ** Demand-to-Supply interface mass flow rate check value iteration history trace: 8.379889E-002,8.379889E-002,8.379889E-002,8.379889E-002,8.379889E-002,8.379889E-002,8.379889E-002,8.379889E-002,8.379889E-002,8.379889E-002,
   **   ~~~   ** Supply-to-demand interface deck 1 mass flow rate check value iteration history trace: 8.379889E-002,8.379889E-002,8.379889E-002,8.379889E-002,8.379889E-002,8.379889E-002,8.379889E-002,8.379889E-002,8.379889E-002,8.379889E-002,
   **   ~~~   ** Air System Named = CENTRAL SYSTEM did not converge for energy
   **   ~~~   ** Check values should be zero. Most Recent values listed first.
   **   ~~~   ** Demand-to-Supply interface energy check value iteration history trace: 1572.069161,1572.069161,1572.069161,1572.069161,1572.069161,1572.069161,1572.069160,1572.069160,1572.069160,1572.069160,
   **   ~~~   ** Supply-to-demand interface deck 1 energy check value iteration history trace: 2378.830601,2378.830601,2378.830601,2378.830601,2378.830601,2378.830600,2378.830600,2378.830600,2378.830600,2378.830600,
   ** Warning ** SimHVAC: Maximum iterations (20) exceeded for all HVAC loops, at ANNUAL, 03/07 19:15 - 19:30
   **   ~~~   ** The solution for one or more of the Air Loop HVAC systems did not appear to converge
   **   ~~~   ** Air System Named = CENTRAL SYSTEM did not converge for mass flow rate
   **   ~~~   ** Check values should be zero. Most Recent values listed first.
   **   ~~~   ** Demand-to-Supply interface mass flow rate check value iteration history trace: 8.130407E-002,8.130407E-002,8.130407E-002,8.130407E-002,8.130407E-002,8.130407E-002,8.130407E-002,8.130407E-002,8.130407E-002,8.130407E-002,
   **   ~~~   ** Supply-to-demand interface deck 1 mass flow rate check value iteration history trace: 8.130407E-002,8.130407E-002,8.130407E-002,8.130407E-002,8.130407E-002,8.130407E-002,8.130407E-002,8.130407E-002,8.130407E-002,8.130407E-002,
   **   ~~~   ** Air System Named = CENTRAL SYSTEM did not converge for energy
   **   ~~~   ** Check values should be zero. Most Recent values listed first.
   **   ~~~   ** Demand-to-Supply interface energy check value iteration history trace: 1587.685316,1587.685316,1587.685316,1587.685316,1587.685316,1587.685316,1587.685316,1587.685316,1587.685316,1587.685316,
   **   ~~~   ** Supply-to-demand interface deck 1 energy check value iteration history trace: 2513.149296,2513.149296,2513.149296,2513.149296,2513.149296,2513.149296,2513.149296,2513.149296,2513.149296,2513.149296,
   ** Warning ** SimHVAC: Maximum iterations (20) exceeded for all HVAC loops, at ANNUAL, 03/13 11:15 - 11:22
   **   ~~~   ** The solution for one or more of the Air Loop HVAC systems did not appear to converge
   **   ~~~   ** Air System Named = CENTRAL SYSTEM did not converge for mass flow rate
   **   ~~~   ** Check values should be zero. Most Recent values listed first.
   **   ~~~   ** Demand-to-Supply interface mass flow rate check value iteration history trace: 5.701609E-002,5.701609E-002,5.701609E-002,5.701609E-002,5.701609E-002,5.701609E-002,5.701609E-002,5.701609E-002,5.701609E-002,5.701609E-002,
   **   ~~~   ** Supply-to-demand interface deck 1 mass flow rate check value iteration history trace: 5.701609E-002,5.701609E-002,5.701609E-002,5.701609E-002,5.701609E-002,5.701609E-002,5.701609E-002,5.701609E-002,5.701609E-002,5.701609E-002,
   **   ~~~   ** Air System Named = CENTRAL SYSTEM did not converge for energy
   **   ~~~   ** Check values should be zero. Most Recent values listed first.
   **   ~~~   ** Demand-to-Supply interface energy check value iteration history trace: 1130.497169,1130.497169,1130.497169,1130.497169,1130.497169,1130.497169,1130.497169,1130.497169,1130.497169,1130.497169,
   **   ~~~   ** Supply-to-demand interface deck 1 energy check value iteration history trace: 1974.718440,1974.718439,1974.718439,1974.718439,1974.718439,1974.718439,1974.718439,1974.718439,1974.718439,1974.718439,
   ** Warning ** SimHVAC: Maximum iterations (20) exceeded for all HVAC loops, at ANNUAL, 03/18 08:38 - 08:41
   **   ~~~   ** The solution for one or more of the Air Loop HVAC systems did not appear to converge
   **   ~~~   ** Air System Named = CENTRAL SYSTEM did not converge for mass flow rate
   **   ~~~   ** Check values should be zero. Most Recent values listed first.
   **   ~~~   ** Demand-to-Supply interface mass flow rate check value iteration history trace: 6.642692E-002,6.642692E-002,6.642692E-002,6.642692E-002,6.642692E-002,6.642692E-002,6.642692E-002,6.642692E-002,6.642692E-002,6.642692E-002,
   **   ~~~   ** Supply-to-demand interface deck 1 mass flow rate check value iteration history trace: 6.642692E-002,6.642692E-002,6.642692E-002,6.642692E-002,6.642692E-002,6.642692E-002,6.642692E-002,6.642692E-002,6.642692E-002,6.642692E-002,
   **   ~~~   ** Air System Named = CENTRAL SYSTEM did not converge for energy
   **   ~~~   ** Check values should be zero. Most Recent values listed first.
   **   ~~~   ** Demand-to-Supply interface energy check value iteration history trace: 1305.499691,1305.499691,1305.499691,1305.499691,1305.499691,1305.499691,1305.499691,1305.499691,1305.499691,1305.499691,
   **   ~~~   ** Supply-to-demand interface deck 1 energy check value iteration history trace: 2378.069234,2378.069233,2378.069233,2378.069233,2378.069233,2378.069233,2378.069233,2378.069233,2378.069233,2378.069233,
   ** Warning ** Temperature out of range [-100. to 200.] (PsyPsatFnTemp)
   **   ~~~   **  Routine=PsyTwbFnTdbWPb, Environment=ANNUAL, at Simulation time=03/27 17:15 - 17:19
   **   ~~~   **  Input Temperature=-140.06
   ** Warning ** SimHVAC: Maximum iterations (20) exceeded for all HVAC loops, at ANNUAL, 03/29 09:00 - 09:15
   **   ~~~   ** The solution for one or more of the Air Loop HVAC systems did not appear to converge
   **   ~~~   ** Air System Named = CENTRAL SYSTEM did not converge for mass flow rate
   **   ~~~   ** Check values should be zero. Most Recent values listed first.
   **   ~~~   ** Demand-to-Supply interface mass flow rate check value iteration history trace: 7.908317E-002,7.908317E-002,7.908317E-002,7.908317E-002,7.908317E-002,7.908317E-002,7.908317E-002,7.908317E-002,7.908317E-002,7.908317E-002,
   **   ~~~   ** Supply-to-demand interface deck 1 mass flow rate check value iteration history trace: 7.908317E-002,7.908317E-002,7.908317E-002,7.908317E-002,7.908317E-002,7.908317E-002,7.908317E-002,7.908317E-002,7.908317E-002,7.908317E-002,
   **   ~~~   ** Air System Named = CENTRAL SYSTEM did not converge for energy
   **   ~~~   ** Check values should be zero. Most Recent values listed first.
   **   ~~~   ** Demand-to-Supply interface energy check value iteration history trace: 1566.468300,1566.468300,1566.468299,1566.468299,1566.468299,1566.468299,1566.468299,1566.468299,1566.468299,1566.468299,
   **   ~~~   ** Supply-to-demand interface deck 1 energy check value iteration history trace: 2454.491796,2454.491796,2454.491796,2454.491796,2454.491795,2454.491795,2454.491795,2454.491795,2454.491795,2454.491795,
   ** Warning ** SimHVAC: Maximum iterations (20) exceeded for all HVAC loops, at ANNUAL, 03/30 08:15 - 08:30
   **   ~~~   ** The solution for one or more of the Air Loop HVAC systems did not appear to converge
   **   ~~~   ** Air System Named = CENTRAL SYSTEM did not converge for mass flow rate
   **   ~~~   ** Check values should be zero. Most Recent values listed first.
   **   ~~~   ** Demand-to-Supply interface mass flow rate check value iteration history trace: 7.522132E-002,7.522132E-002,7.522132E-002,7.522132E-002,7.522132E-002,7.522132E-002,7.522132E-002,7.522132E-002,7.522132E-002,7.522132E-002,
   **   ~~~   ** Supply-to-demand interface deck 1 mass flow rate check value iteration history trace: 7.522132E-002,7.522132E-002,7.522132E-002,7.522132E-002,7.522132E-002,7.522132E-002,7.522132E-002,7.522132E-002,7.522132E-002,7.522132E-002,
   **   ~~~   ** Air System Named = CENTRAL SYSTEM did not converge for energy
   **   ~~~   ** Check values should be zero. Most Recent values listed first.
   **   ~~~   ** Demand-to-Supply interface energy check value iteration history trace: 1490.634281,1490.634281,1490.634281,1490.634281,1490.634281,1490.634281,1490.634281,1490.634281,1490.634281,1490.634281,
   **   ~~~   ** Supply-to-demand interface deck 1 energy check value iteration history trace: 2483.165452,2483.165451,2483.165451,2483.165451,2483.165451,2483.165451,2483.165451,2483.165451,2483.165451,2483.165450,
   ** Warning ** SimHVAC: Maximum iterations (20) exceeded for all HVAC loops, at ANNUAL, 04/29 09:15 - 09:22
   **   ~~~   ** The solution for one or more of the Air Loop HVAC systems did not appear to converge
   **   ~~~   ** Air System Named = CENTRAL SYSTEM did not converge for mass flow rate
   **   ~~~   ** Check values should be zero. Most Recent values listed first.
   **   ~~~   ** Demand-to-Supply interface mass flow rate check value iteration history trace: 6.291786E-002,6.291786E-002,6.291786E-002,6.291786E-002,6.291786E-002,6.291786E-002,6.291786E-002,6.291786E-002,6.291786E-002,6.291786E-002,
   **   ~~~   ** Supply-to-demand interface deck 1 mass flow rate check value iteration history trace: 6.291786E-002,6.291786E-002,6.291786E-002,6.291786E-002,6.291786E-002,6.291786E-002,6.291786E-002,6.291786E-002,6.291786E-002,6.291786E-002,
   **   ~~~   ** Air System Named = CENTRAL SYSTEM did not converge for energy
   **   ~~~   ** Check values should be zero. Most Recent values listed first.
   **   ~~~   ** Demand-to-Supply interface energy check value iteration history trace: 1246.999562,1246.999562,1246.999562,1246.999562,1246.999561,1246.999561,1246.999561,1246.999561,1246.999561,1246.999561,
   **   ~~~   ** Supply-to-demand interface deck 1 energy check value iteration history trace: 2194.400067,2194.400067,2194.400067,2194.400067,2194.400067,2194.400067,2194.400067,2194.400067,2194.400067,2194.400066,
   ************* Simulation Error Summary *************
   ** Warning ** The following Report Variables were requested but not generated -- check.rdd file
   **   ~~~   ** Either the IDF did not contain these elements, the variable name is misspelled,
   **   ~~~   ** or the requested variable is an advanced output which requires Output : Diagnostics, DisplayAdvancedReportVariables;
   ************* Key=*, VarName=BASEBOARD TOTAL HEATING ENERGY, Frequency=
   ************* Key=*, VarName=WATER HEATER NATURALGAS ENERGY, Frequency=
   ************* Key=*, VarName=COOLING COIL TOTAL HEATING ENERGY, Frequency=
   ************* There are 34 unused schedules in input.
   ************* There are 388 unused week schedules in input.
   ************* There are 396 unused day schedules in input.
   ************* Use Output:Diagnostics,DisplayUnusedSchedules; to see them.
   *************
   ************* ===== Recurring Error Summary =====
   ************* The following recurring error messages occurred.
   *************
   *************  ** Warning ** "TOTAL HOT WATER LOAD" - Target water temperature should be less than or equal to the hot water temperature error continues...
   *************  **   ~~~   **   This error occurred 113501 total times;
   *************  **   ~~~   **   during Warmup 0 times;
   *************  **   ~~~   **   during Sizing 0 times.
   *************  **   ~~~   **   Max=12.037537  Min=1.759932E-003
   *************
   *************  ** Warning ** Temperature out of range [-100. to 200.] (PsyPsatFnTemp)
   *************  **   ~~~   **   This error occurred 1 total times;
   *************  **   ~~~   **   during Warmup 0 times;
   *************  **   ~~~   **   during Sizing 0 times.
   *************  **   ~~~   **   Max=-140.060295 C  Min=-140.060295 C
   *************
   *************  ** Warning ** SimHVAC: Exceeding Maximum iterations for all HVAC loops, during ANNUAL continues
   *************  **   ~~~   **   This error occurred 10 total times;
   *************  **   ~~~   **   during Warmup 0 times;
   *************  **   ~~~   **   during Sizing 0 times.
   *************
   *************
   ************* ===== Final Error Summary =====
   ************* The following error categories occurred.  Consider correcting or noting.
   ************* Nominally Unused Constructions
   ************* ..The nominally unused constructions warning is provided to alert you to potential conditions that can cause
   ************* ..extra time during simulation. Each construction is calculated by the algorithm indicated in the HeatBalanceAlgorithm
   ************* ..object. You may remove the constructions indicated (when you use the DisplayExtraWarnings option).
   *************
   ************* EnergyPlus Warmup Error Summary. During Warmup: 1 Warning; 0 Severe Errors.
   ************* EnergyPlus Sizing Error Summary. During Sizing: 4 Warning; 0 Severe Errors.
   ************* EnergyPlus Completed Successfully-- 113544 Warning; 0 Severe Errors; Elapsed Time=00hr 01min 25.22sec
