Program Version,EnergyPlus, Version 22.2.0-c249759bad, YMD=2023.09.01 18:53,
   ************* Beginning Zone Sizing Calculations
   ** Warning ** ProcessScheduleInput: Schedule:Constant="ALWAYS ON DISCRETE", Schedule Type Limits Name="ONOFF" not found -- will not be validated
   ** Warning ** Foundation:Kiva="KIVA FOUNDATION", no Interior Horizontal Insulation Material Name defined
   **   ~~~   ** Interior Horizontal Insulation Depth will not be used.
   ** Warning ** CheckUsedConstructions: There are 15 nominally unused constructions in input.
   **   ~~~   ** Each Unused construction is shown.
   ************* Construction=INTERIOR FLOOR
   ************* Construction=INTERIOR WINDOW
   ************* Construction=EXTERIOR DOOR
   ************* Construction=INTERIOR DOOR
   ************* Construction=GABLE CONSTRUCTION
   ************* Construction=CRAWL_FLOOR
   ************* Construction=INSULATED PIPE
   ************* Construction=PLAIN PIPE
   ************* Construction=TDD PIPE
   ************* Construction=TDD DOME
   ************* Construction=TDD DIFFUSER
   ************* Construction=CRAWL WALL
   ************* Construction=CEILING-FLOOR-LAYER
   ************* Construction=SLAB CONSTRUCTION W FULL R10 INSULATION
   ************* Construction=SLAB CONSTRUCTION W FULL R5 INSULATION
   ** Warning ** GetDXCoils: Coil:Heating:DX:SingleSpeed="DX_HEATING_COIL" curve values
   **   ~~~   ** ... Defrost Energy Input Ratio Function of Temperature Curve Name = DEFROSTEIR output is not equal to 1.0 (+ or - 10%) at rated conditions.
   **   ~~~   ** ... Curve output at rated conditions = 0.152
   ************* Beginning System Sizing Calculations
   ************* Beginning Plant Sizing Calculations
   ** Warning ** Coil:WaterHeating:AirToWaterHeatPump:Wrapped "HEAT PUMP WATER HEATER EVAPORATOR": Rated air volume flow rate per watt of rated total water heating capacity is out of range
   **   ~~~   ** Min Rated Vol Flow Per Watt=[4.027E-005], Rated Vol Flow Per Watt=[1.510E-004], Max Rated Vol Flow Per Watt=[8.056E-005]. See Input-Output Reference Manual for valid range.
   ************* SizeFan: : Potential issue with equipment sizing for Fan:OnOff HEAT PUMP WATER HEATER FAN
   **   ~~~   ** User-Specified Maximum Flow Rate [m3/s] = 0.22653
   **   ~~~   ** differs from Design Size Maximum Flow Rate [m3/s] = 7.55250E-002
   **   ~~~   ** This may, or may not, indicate mismatched component sizes.
   **   ~~~   ** Verify that the value entered is intended and is consistent with other components.
   ** Warning ** Water heater = WATER HEATER TANK:  Recovery Efficiency and Energy Factor could not be calculated during the test for standard ratings
   **   ~~~   ** Setpoint was never recovered and/or heater never turned on
   ** Warning ** Check input. Pump nominal power or motor efficiency is set to 0, for pump=MAINS PRESSURE
   ** Warning ** Output:Meter: invalid Key Name="ELECTRIC_RANGE:INTERIOREQUIPMENT:ELECTRICITY" - not found.
   ** Warning ** Output:Meter: invalid Key Name="ELECTRIC_DRYER:INTERIOREQUIPMENT:ELECTRICITY" - not found.
   ** Warning ** Output:Meter: invalid Key Name="HEATRECOVERY:ELECTRICITY" - not found.
   ** Warning ** Output:Meter: invalid Key Name="HEATING:NATURALGAS" - not found.
   ** Warning ** Output:Meter: invalid Key Name="WATERSYSTEMS:NATURALGAS" - not found.
   ** Warning ** Output:Meter: invalid Key Name="PROPANE:FACILITY" - not found.
   ** Warning ** Output:Meter: invalid Key Name="HEATING:PROPANE" - not found.
   ************* Testing Individual Branch Integrity
   ************* All Branches passed integrity testing
   ************* Testing Individual Supply Air Path Integrity
   ************* All Supply Air Paths passed integrity testing
   ************* Testing Individual Return Air Path Integrity
   ************* All Return Air Paths passed integrity testing
   ************* No node connection errors were found.
   ************* Beginning Simulation
   ** Warning ** AirflowNetwork::Solver::validate_distribution: Heat pump water heater is simulated along with an AirflowNetwork but is not included in the AirflowNetwork.
   ** Warning ** CalcEquipmentFlowRates: "TOTAL HOT WATER LOAD" - Target water temperature is greater than the hot water temperature by (0.66 C)
   **   ~~~   **  Environment=EXTREME_WINTER, at Simulation time=01/27 03:45 - 04:00
   **   ~~~   ** ...target water temperature     = 53.33 C
   **   ~~~   ** ...hot water temperature        = 52.67 C
   **   ~~~   ** ...Target water temperature should be less than or equal to the hot water temperature. Verify temperature setpoints and schedules.
   ** Warning ** SimHVAC: Maximum iterations (20) exceeded for all HVAC loops, at ANNUAL, 01/23 07:45 - 08:00
   **   ~~~   ** The solution for one or more of the Air Loop HVAC systems did not appear to converge
   **   ~~~   ** Air System Named = CENTRAL SYSTEM did not converge for mass flow rate
   **   ~~~   ** Check values should be zero. Most Recent values listed first.
   **   ~~~   ** Demand-to-Supply interface mass flow rate check value iteration history trace: 4.638869E-002,4.638869E-002,4.638869E-002,4.638869E-002,4.638869E-002,4.638869E-002,4.638869E-002,4.638869E-002,4.638869E-002,4.638869E-002,
   **   ~~~   ** Supply-to-demand interface deck 1 mass flow rate check value iteration history trace: 4.638869E-002,4.638869E-002,4.638869E-002,4.638869E-002,4.638869E-002,4.638869E-002,4.638869E-002,4.638869E-002,4.638869E-002,4.638869E-002,
   **   ~~~   ** Air System Named = CENTRAL SYSTEM did not converge for energy
   **   ~~~   ** Check values should be zero. Most Recent values listed first.
   **   ~~~   ** Demand-to-Supply interface energy check value iteration history trace: 899.204315,899.204315,899.204315,899.204315,899.204315,899.204315,899.204315,899.204315,899.204315,899.204315,
   **   ~~~   ** Supply-to-demand interface deck 1 energy check value iteration history trace: 1675.985938,1675.985938,1675.985938,1675.985938,1675.985938,1675.985938,1675.985938,1675.985938,1675.985938,1675.985938,
   ** Warning ** SimHVAC: Maximum iterations (20) exceeded for all HVAC loops, at ANNUAL, 02/28 07:00 - 07:15
   **   ~~~   ** The solution for one or more of the Air Loop HVAC systems did not appear to converge
   **   ~~~   ** Air System Named = CENTRAL SYSTEM did not converge for mass flow rate
   **   ~~~   ** Check values should be zero. Most Recent values listed first.
   **   ~~~   ** Demand-to-Supply interface mass flow rate check value iteration history trace: 6.012868E-002,6.012868E-002,6.012868E-002,6.012868E-002,6.012868E-002,6.012868E-002,6.012868E-002,6.012868E-002,6.012868E-002,6.012868E-002,
   **   ~~~   ** Supply-to-demand interface deck 1 mass flow rate check value iteration history trace: 6.012868E-002,6.012868E-002,6.012868E-002,6.012868E-002,6.012868E-002,6.012868E-002,6.012868E-002,6.012868E-002,6.012868E-002,6.012868E-002,
   **   ~~~   ** Air System Named = CENTRAL SYSTEM did not converge for energy
   **   ~~~   ** Check values should be zero. Most Recent values listed first.
   **   ~~~   ** Demand-to-Supply interface energy check value iteration history trace: 1189.985151,1189.985151,1189.985151,1189.985151,1189.985151,1189.985151,1189.985151,1189.985151,1189.985151,1189.985151,
   **   ~~~   ** Supply-to-demand interface deck 1 energy check value iteration history trace: 2063.415115,2063.415115,2063.415115,2063.415115,2063.415115,2063.415115,2063.415115,2063.415115,2063.415115,2063.415115,
   ** Warning ** SimHVAC: Maximum iterations (20) exceeded for all HVAC loops, at ANNUAL, 03/15 07:51 - 07:54
   **   ~~~   ** The solution for one or more of the Air Loop HVAC systems did not appear to converge
   **   ~~~   ** Air System Named = CENTRAL SYSTEM did not converge for mass flow rate
   **   ~~~   ** Check values should be zero. Most Recent values listed first.
   **   ~~~   ** Demand-to-Supply interface mass flow rate check value iteration history trace: 0.195908,0.195908,0.195908,0.195908,0.195908,0.195908,0.195908,0.195908,0.195908,0.195908,
   **   ~~~   ** Supply-to-demand interface deck 1 mass flow rate check value iteration history trace: 0.195908,0.195908,0.195908,0.195908,0.195908,0.195908,0.195908,0.195908,0.195908,0.195908,
   **   ~~~   ** Air System Named = CENTRAL SYSTEM did not converge for energy
   **   ~~~   ** Check values should be zero. Most Recent values listed first.
   **   ~~~   ** Demand-to-Supply interface energy check value iteration history trace: 4634.899780,4634.899781,4634.899782,4634.899784,4634.899785,4634.899786,4634.899787,4634.899788,4634.899790,4634.899791,
   **   ~~~   ** Supply-to-demand interface deck 1 energy check value iteration history trace: 2495.648435,2495.648436,2495.648436,2495.648437,2495.648438,2495.648438,2495.648439,2495.648440,2495.648440,2495.648441,
   ** Warning ** SimHVAC: Maximum iterations (20) exceeded for all HVAC loops, at ANNUAL, 03/18 09:24 - 09:27
   **   ~~~   ** The solution for one or more of the Air Loop HVAC systems did not appear to converge
   **   ~~~   ** Air System Named = CENTRAL SYSTEM did not converge for mass flow rate
   **   ~~~   ** Check values should be zero. Most Recent values listed first.
   **   ~~~   ** Demand-to-Supply interface mass flow rate check value iteration history trace: 0.100068,0.100068,0.100068,0.100068,0.100068,0.100068,0.100068,0.100068,0.100068,0.100068,
   **   ~~~   ** Supply-to-demand interface deck 1 mass flow rate check value iteration history trace: 0.100068,0.100068,0.100068,0.100068,0.100068,0.100068,0.100068,0.100068,0.100068,0.100068,
   **   ~~~   ** Air System Named = CENTRAL SYSTEM did not converge for energy
   **   ~~~   ** Check values should be zero. Most Recent values listed first.
   **   ~~~   ** Demand-to-Supply interface energy check value iteration history trace: 2371.426220,2371.426220,2371.426220,2371.426221,2371.426221,2371.426221,2371.426221,2371.426221,2371.426222,2371.426222,
   **   ~~~   ** Supply-to-demand interface deck 1 energy check value iteration history trace: 1225.675813,1225.675813,1225.675813,1225.675813,1225.675813,1225.675813,1225.675813,1225.675814,1225.675814,1225.675814,
   ** Warning ** SimHVAC: Maximum iterations (20) exceeded for all HVAC loops, at ANNUAL, 03/18 10:40 - 10:45
   **   ~~~   ** The solution for one or more of the Air Loop HVAC systems did not appear to converge
   **   ~~~   ** Air System Named = CENTRAL SYSTEM did not converge for mass flow rate
   **   ~~~   ** Check values should be zero. Most Recent values listed first.
   **   ~~~   ** Demand-to-Supply interface mass flow rate check value iteration history trace: 0.172476,0.172476,0.172476,0.172476,0.172476,0.172476,0.172476,0.172476,0.172476,0.172476,
   **   ~~~   ** Supply-to-demand interface deck 1 mass flow rate check value iteration history trace: 0.172476,0.172476,0.172476,0.172476,0.172476,0.172476,0.172476,0.172476,0.172476,0.172476,
   **   ~~~   ** Air System Named = CENTRAL SYSTEM did not converge for energy
   **   ~~~   ** Check values should be zero. Most Recent values listed first.
   **   ~~~   ** Demand-to-Supply interface energy check value iteration history trace: 4083.100428,4083.100428,4083.100429,4083.100429,4083.100429,4083.100430,4083.100430,4083.100430,4083.100431,4083.100431,
   **   ~~~   ** Supply-to-demand interface deck 1 energy check value iteration history trace: 2094.313107,2094.313108,2094.313108,2094.313108,2094.313108,2094.313108,2094.313108,2094.313108,2094.313109,2094.313109,
   ** Warning ** SimHVAC: Maximum iterations (20) exceeded for all HVAC loops, at ANNUAL, 03/21 07:00 - 07:08
   **   ~~~   ** The solution for one or more of the Air Loop HVAC systems did not appear to converge
   **   ~~~   ** Air System Named = CENTRAL SYSTEM did not converge for mass flow rate
   **   ~~~   ** Check values should be zero. Most Recent values listed first.
   **   ~~~   ** Demand-to-Supply interface mass flow rate check value iteration history trace: 5.873829E-002,5.873829E-002,5.873829E-002,5.873829E-002,5.873829E-002,5.873829E-002,5.873829E-002,5.873829E-002,5.873829E-002,5.873829E-002,
   **   ~~~   ** Supply-to-demand interface deck 1 mass flow rate check value iteration history trace: 5.873829E-002,5.873829E-002,5.873829E-002,5.873829E-002,5.873829E-002,5.873829E-002,5.873829E-002,5.873829E-002,5.873829E-002,5.873829E-002,
   **   ~~~   ** Air System Named = CENTRAL SYSTEM did not converge for energy
   **   ~~~   ** Check values should be zero. Most Recent values listed first.
   **   ~~~   ** Demand-to-Supply interface energy check value iteration history trace: 1148.726511,1148.726511,1148.726511,1148.726511,1148.726511,1148.726511,1148.726511,1148.726511,1148.726511,1148.726510,
   **   ~~~   ** Supply-to-demand interface deck 1 energy check value iteration history trace: 2014.859145,2014.859145,2014.859145,2014.859145,2014.859144,2014.859144,2014.859144,2014.859144,2014.859144,2014.859144,
   ** Warning ** SimHVAC: Maximum iterations (20) exceeded for all HVAC loops, at ANNUAL, 11/06 06:15 - 06:30
   **   ~~~   ** The solution for one or more of the Air Loop HVAC systems did not appear to converge
   **   ~~~   ** Air System Named = CENTRAL SYSTEM did not converge for mass flow rate
   **   ~~~   ** Check values should be zero. Most Recent values listed first.
   **   ~~~   ** Demand-to-Supply interface mass flow rate check value iteration history trace: 7.252094E-002,7.252094E-002,7.252094E-002,7.252094E-002,7.252094E-002,7.252094E-002,7.252094E-002,7.252094E-002,7.252094E-002,7.252094E-002,
   **   ~~~   ** Supply-to-demand interface deck 1 mass flow rate check value iteration history trace: 7.252094E-002,7.252094E-002,7.252094E-002,7.252094E-002,7.252094E-002,7.252094E-002,7.252094E-002,7.252094E-002,7.252094E-002,7.252094E-002,
   **   ~~~   ** Air System Named = CENTRAL SYSTEM did not converge for energy
   **   ~~~   ** Check values should be zero. Most Recent values listed first.
   **   ~~~   ** Demand-to-Supply interface energy check value iteration history trace: 1435.755091,1435.755091,1435.755091,1435.755091,1435.755091,1435.755091,1435.755091,1435.755091,1435.755091,1435.755090,
   **   ~~~   ** Supply-to-demand interface deck 1 energy check value iteration history trace: 2428.815495,2428.815495,2428.815495,2428.815495,2428.815495,2428.815495,2428.815494,2428.815494,2428.815494,2428.815494,
   ** Warning ** SimHVAC: Maximum iterations (20) exceeded for all HVAC loops, at ANNUAL, 12/10 19:55 - 20:00
   **   ~~~   ** The solution for one or more of the Air Loop HVAC systems did not appear to converge
   **   ~~~   ** Air System Named = CENTRAL SYSTEM did not converge for mass flow rate
   **   ~~~   ** Check values should be zero. Most Recent values listed first.
   **   ~~~   ** Demand-to-Supply interface mass flow rate check value iteration history trace: 0.118372,0.118372,0.118372,0.118372,0.118372,0.118372,0.118372,0.118372,0.118372,0.118372,
   **   ~~~   ** Supply-to-demand interface deck 1 mass flow rate check value iteration history trace: 0.118372,0.118372,0.118372,0.118372,0.118372,0.118372,0.118372,0.118372,0.118372,0.118372,
   **   ~~~   ** Air System Named = CENTRAL SYSTEM did not converge for energy
   **   ~~~   ** Check values should be zero. Most Recent values listed first.
   **   ~~~   ** Demand-to-Supply interface energy check value iteration history trace: 2827.504054,2827.504055,2827.504055,2827.504055,2827.504055,2827.504055,2827.504055,2827.504056,2827.504056,2827.504056,
   **   ~~~   ** Supply-to-demand interface deck 1 energy check value iteration history trace: 1132.519728,1132.519728,1132.519728,1132.519728,1132.519728,1132.519728,1132.519728,1132.519728,1132.519728,1132.519728,
   ** Warning ** SimHVAC: Maximum iterations (20) exceeded for all HVAC loops, at ANNUAL, 12/13 09:00 - 09:02
   **   ~~~   ** The solution for one or more of the Air Loop HVAC systems did not appear to converge
   **   ~~~   ** Air System Named = CENTRAL SYSTEM did not converge for mass flow rate
   **   ~~~   ** Check values should be zero. Most Recent values listed first.
   **   ~~~   ** Demand-to-Supply interface mass flow rate check value iteration history trace: 7.156889E-002,7.156889E-002,7.156889E-002,7.156889E-002,7.156889E-002,7.156889E-002,7.156889E-002,7.156889E-002,7.156889E-002,7.156889E-002,
   **   ~~~   ** Supply-to-demand interface deck 1 mass flow rate check value iteration history trace: 7.156889E-002,7.156889E-002,7.156889E-002,7.156889E-002,7.156889E-002,7.156889E-002,7.156889E-002,7.156889E-002,7.156889E-002,7.156889E-002,
   **   ~~~   ** Air System Named = CENTRAL SYSTEM did not converge for energy
   **   ~~~   ** Check values should be zero. Most Recent values listed first.
   **   ~~~   ** Demand-to-Supply interface energy check value iteration history trace: 1418.190928,1418.190928,1418.190928,1418.190928,1418.190928,1418.190928,1418.190927,1418.190927,1418.190927,1418.190927,
   **   ~~~   ** Supply-to-demand interface deck 1 energy check value iteration history trace: 2407.263121,2407.263121,2407.263121,2407.263121,2407.263121,2407.263121,2407.263121,2407.263121,2407.263121,2407.263120,
   ************* Simulation Error Summary *************
   ** Warning ** The following Report Variables were requested but not generated -- check.rdd file
   **   ~~~   ** Either the IDF did not contain these elements, the variable name is misspelled,
   **   ~~~   ** or the requested variable is an advanced output which requires Output : Diagnostics, DisplayAdvancedReportVariables;
   ************* Key=*, VarName=BASEBOARD TOTAL HEATING ENERGY, Frequency=
   ************* Key=*, VarName=WATER HEATER NATURALGAS ENERGY, Frequency=
   ************* Key=*, VarName=COOLING COIL TOTAL HEATING ENERGY, Frequency=
   ************* There are 34 unused schedules in input.
   ************* There are 388 unused week schedules in input.
   ************* There are 396 unused day schedules in input.
   ************* Use Output:Diagnostics,DisplayUnusedSchedules; to see them.
   *************
   ************* ===== Recurring Error Summary =====
   ************* The following recurring error messages occurred.
   *************
   *************  ** Warning ** "TOTAL HOT WATER LOAD" - Target water temperature should be less than or equal to the hot water temperature error continues...
   *************  **   ~~~   **   This error occurred 67415 total times;
   *************  **   ~~~   **   during Warmup 0 times;
   *************  **   ~~~   **   during Sizing 0 times.
   *************  **   ~~~   **   Max=6.414886  Min=4.233931E-003
   *************
   *************
   ************* ===== Final Error Summary =====
   ************* The following error categories occurred.  Consider correcting or noting.
   ************* Nominally Unused Constructions
   ************* ..The nominally unused constructions warning is provided to alert you to potential conditions that can cause
   ************* ..extra time during simulation. Each construction is calculated by the algorithm indicated in the HeatBalanceAlgorithm
   ************* ..object. You may remove the constructions indicated (when you use the DisplayExtraWarnings option).
   *************
   ************* EnergyPlus Warmup Error Summary. During Warmup: 1 Warning; 0 Severe Errors.
   ************* EnergyPlus Sizing Error Summary. During Sizing: 4 Warning; 0 Severe Errors.
   ************* EnergyPlus Completed Successfully-- 67441 Warning; 0 Severe Errors; Elapsed Time=00hr 01min 40.63sec
