Program Version,EnergyPlus, Version 22.2.0-c249759bad, YMD=2023.09.01 20:01,
   ************* Beginning Zone Sizing Calculations
   ** Warning ** ProcessScheduleInput: Schedule:Constant="ALWAYS ON DISCRETE", Schedule Type Limits Name="ONOFF" not found -- will not be validated
   ** Warning ** Foundation:Kiva="KIVA FOUNDATION", no Interior Horizontal Insulation Material Name defined
   **   ~~~   ** Interior Horizontal Insulation Depth will not be used.
   ** Warning ** CheckUsedConstructions: There are 15 nominally unused constructions in input.
   **   ~~~   ** Each Unused construction is shown.
   ************* Construction=INTERIOR FLOOR
   ************* Construction=INTERIOR WINDOW
   ************* Construction=EXTERIOR DOOR
   ************* Construction=INTERIOR DOOR
   ************* Construction=GABLE CONSTRUCTION
   ************* Construction=CRAWL_FLOOR
   ************* Construction=INSULATED PIPE
   ************* Construction=PLAIN PIPE
   ************* Construction=TDD PIPE
   ************* Construction=TDD DOME
   ************* Construction=TDD DIFFUSER
   ************* Construction=CRAWL WALL
   ************* Construction=CEILING-FLOOR-LAYER
   ************* Construction=SLAB CONSTRUCTION W FULL R10 INSULATION
   ************* Construction=SLAB CONSTRUCTION W FULL R5 INSULATION
   ** Warning ** GetDXCoils: Coil:Heating:DX:SingleSpeed="DX_HEATING_COIL" curve values
   **   ~~~   ** ... Defrost Energy Input Ratio Function of Temperature Curve Name = DEFROSTEIR output is not equal to 1.0 (+ or - 10%) at rated conditions.
   **   ~~~   ** ... Curve output at rated conditions = 0.152
   ************* Beginning System Sizing Calculations
   ************* Beginning Plant Sizing Calculations
   ** Warning ** Coil:WaterHeating:AirToWaterHeatPump:Wrapped "HEAT PUMP WATER HEATER EVAPORATOR": Rated air volume flow rate per watt of rated total water heating capacity is out of range
   **   ~~~   ** Min Rated Vol Flow Per Watt=[4.027E-005], Rated Vol Flow Per Watt=[1.510E-004], Max Rated Vol Flow Per Watt=[8.056E-005]. See Input-Output Reference Manual for valid range.
   ************* SizeFan: : Potential issue with equipment sizing for Fan:OnOff HEAT PUMP WATER HEATER FAN
   **   ~~~   ** User-Specified Maximum Flow Rate [m3/s] = 0.22653
   **   ~~~   ** differs from Design Size Maximum Flow Rate [m3/s] = 7.55250E-002
   **   ~~~   ** This may, or may not, indicate mismatched component sizes.
   **   ~~~   ** Verify that the value entered is intended and is consistent with other components.
   ** Warning ** Water heater = WATER HEATER TANK:  Recovery Efficiency and Energy Factor could not be calculated during the test for standard ratings
   **   ~~~   ** Setpoint was never recovered and/or heater never turned on
   ** Warning ** Check input. Pump nominal power or motor efficiency is set to 0, for pump=MAINS PRESSURE
   ** Warning ** Output:Meter: invalid Key Name="ELECTRIC_RANGE:INTERIOREQUIPMENT:ELECTRICITY" - not found.
   ** Warning ** Output:Meter: invalid Key Name="ELECTRIC_DRYER:INTERIOREQUIPMENT:ELECTRICITY" - not found.
   ** Warning ** Output:Meter: invalid Key Name="HEATRECOVERY:ELECTRICITY" - not found.
   ** Warning ** Output:Meter: invalid Key Name="HEATING:NATURALGAS" - not found.
   ** Warning ** Output:Meter: invalid Key Name="WATERSYSTEMS:NATURALGAS" - not found.
   ** Warning ** Output:Meter: invalid Key Name="PROPANE:FACILITY" - not found.
   ** Warning ** Output:Meter: invalid Key Name="HEATING:PROPANE" - not found.
   ************* Testing Individual Branch Integrity
   ************* All Branches passed integrity testing
   ************* Testing Individual Supply Air Path Integrity
   ************* All Supply Air Paths passed integrity testing
   ************* Testing Individual Return Air Path Integrity
   ************* All Return Air Paths passed integrity testing
   ************* No node connection errors were found.
   ************* Beginning Simulation
   ** Warning ** AirflowNetwork::Solver::validate_distribution: Heat pump water heater is simulated along with an AirflowNetwork but is not included in the AirflowNetwork.
   ** Warning ** CalcEquipmentFlowRates: "TOTAL HOT WATER LOAD" - Target water temperature is greater than the hot water temperature by (4.65 C)
   **   ~~~   **  Environment=EXTREME_WINTER, at Simulation time=01/06 07:00 - 07:15
   **   ~~~   ** ...target water temperature     = 53.33 C
   **   ~~~   ** ...hot water temperature        = 48.68 C
   **   ~~~   ** ...Target water temperature should be less than or equal to the hot water temperature. Verify temperature setpoints and schedules.
   ** Warning ** SimHVAC: Maximum iterations (20) exceeded for all HVAC loops, at EXTREME_WINTER, 01/11 10:45 - 11:00
   **   ~~~   ** The solution for one or more of the Air Loop HVAC systems did not appear to converge
   **   ~~~   ** Air System Named = CENTRAL SYSTEM did not converge for mass flow rate
   **   ~~~   ** Check values should be zero. Most Recent values listed first.
   **   ~~~   ** Demand-to-Supply interface mass flow rate check value iteration history trace: 5.861417E-002,5.861417E-002,5.861417E-002,5.861417E-002,5.861417E-002,5.861417E-002,5.861417E-002,5.861417E-002,5.861417E-002,5.861417E-002,
   **   ~~~   ** Supply-to-demand interface deck 1 mass flow rate check value iteration history trace: 5.861417E-002,5.861417E-002,5.861417E-002,5.861417E-002,5.861417E-002,5.861417E-002,5.861417E-002,5.861417E-002,5.861417E-002,5.861417E-002,
   **   ~~~   ** Air System Named = CENTRAL SYSTEM did not converge for energy
   **   ~~~   ** Check values should be zero. Most Recent values listed first.
   **   ~~~   ** Demand-to-Supply interface energy check value iteration history trace: 1161.331182,1161.331182,1161.331182,1161.331182,1161.331182,1161.331182,1161.331182,1161.331182,1161.331182,1161.331182,
   **   ~~~   ** Supply-to-demand interface deck 1 energy check value iteration history trace: 2102.293758,2102.293758,2102.293758,2102.293758,2102.293758,2102.293758,2102.293758,2102.293758,2102.293757,2102.293757,
   ** Warning ** SimHVAC: Maximum iterations (20) exceeded for all HVAC loops, at ANNUAL, 01/14 23:15 - 23:22
   **   ~~~   ** The solution for one or more of the Air Loop HVAC systems did not appear to converge
   **   ~~~   ** Air System Named = CENTRAL SYSTEM did not converge for mass flow rate
   **   ~~~   ** Check values should be zero. Most Recent values listed first.
   **   ~~~   ** Demand-to-Supply interface mass flow rate check value iteration history trace: 5.960807E-002,5.960807E-002,5.960807E-002,5.960807E-002,5.960807E-002,5.960807E-002,5.960807E-002,5.960807E-002,5.960807E-002,5.960807E-002,
   **   ~~~   ** Supply-to-demand interface deck 1 mass flow rate check value iteration history trace: 5.960807E-002,5.960807E-002,5.960807E-002,5.960807E-002,5.960807E-002,5.960807E-002,5.960807E-002,5.960807E-002,5.960807E-002,5.960807E-002,
   **   ~~~   ** Air System Named = CENTRAL SYSTEM did not converge for energy
   **   ~~~   ** Check values should be zero. Most Recent values listed first.
   **   ~~~   ** Demand-to-Supply interface energy check value iteration history trace: 1114.755920,1114.755919,1114.755919,1114.755919,1114.755919,1114.755919,1114.755919,1114.755919,1114.755919,1114.755919,
   **   ~~~   ** Supply-to-demand interface deck 1 energy check value iteration history trace: 1956.352390,1956.352390,1956.352390,1956.352390,1956.352390,1956.352390,1956.352390,1956.352390,1956.352389,1956.352389,
   ** Warning ** SimHVAC: Maximum iterations (20) exceeded for all HVAC loops, at ANNUAL, 01/20 10:13 - 10:15
   **   ~~~   ** The solution for one or more of the Air Loop HVAC systems did not appear to converge
   **   ~~~   ** Air System Named = CENTRAL SYSTEM did not converge for mass flow rate
   **   ~~~   ** Check values should be zero. Most Recent values listed first.
   **   ~~~   ** Demand-to-Supply interface mass flow rate check value iteration history trace: 6.211843E-002,6.211843E-002,6.211843E-002,6.211843E-002,6.211843E-002,6.211843E-002,6.211843E-002,6.211843E-002,6.211843E-002,6.211843E-002,
   **   ~~~   ** Supply-to-demand interface deck 1 mass flow rate check value iteration history trace: 6.211843E-002,6.211843E-002,6.211843E-002,6.211843E-002,6.211843E-002,6.211843E-002,6.211843E-002,6.211843E-002,6.211843E-002,6.211843E-002,
   **   ~~~   ** Air System Named = CENTRAL SYSTEM did not converge for energy
   **   ~~~   ** Check values should be zero. Most Recent values listed first.
   **   ~~~   ** Demand-to-Supply interface energy check value iteration history trace: 1226.368608,1226.368608,1226.368608,1226.368608,1226.368608,1226.368608,1226.368608,1226.368608,1226.368608,1226.368608,
   **   ~~~   ** Supply-to-demand interface deck 1 energy check value iteration history trace: 2256.309459,2256.309459,2256.309459,2256.309459,2256.309459,2256.309459,2256.309459,2256.309459,2256.309459,2256.309458,
   ** Warning ** SimHVAC: Maximum iterations (20) exceeded for all HVAC loops, at ANNUAL, 02/16 09:36 - 09:38
   **   ~~~   ** The solution for one or more of the Air Loop HVAC systems did not appear to converge
   **   ~~~   ** Air System Named = CENTRAL SYSTEM did not converge for mass flow rate
   **   ~~~   ** Check values should be zero. Most Recent values listed first.
   **   ~~~   ** Demand-to-Supply interface mass flow rate check value iteration history trace: 6.899450E-002,6.899450E-002,6.899450E-002,6.899450E-002,6.899450E-002,6.899450E-002,6.899450E-002,6.899450E-002,6.899450E-002,6.899450E-002,
   **   ~~~   ** Supply-to-demand interface deck 1 mass flow rate check value iteration history trace: 6.899450E-002,6.899450E-002,6.899450E-002,6.899450E-002,6.899450E-002,6.899450E-002,6.899450E-002,6.899450E-002,6.899450E-002,6.899450E-002,
   **   ~~~   ** Air System Named = CENTRAL SYSTEM did not converge for energy
   **   ~~~   ** Check values should be zero. Most Recent values listed first.
   **   ~~~   ** Demand-to-Supply interface energy check value iteration history trace: 1361.679061,1361.679060,1361.679060,1361.679060,1361.679060,1361.679060,1361.679060,1361.679060,1361.679060,1361.679060,
   **   ~~~   ** Supply-to-demand interface deck 1 energy check value iteration history trace: 2416.783879,2416.783879,2416.783879,2416.783879,2416.783879,2416.783879,2416.783879,2416.783878,2416.783878,2416.783878,
   ** Warning ** SimHVAC: Maximum iterations (20) exceeded for all HVAC loops, at ANNUAL, 04/12 09:15 - 09:30
   **   ~~~   ** The solution for one or more of the Air Loop HVAC systems did not appear to converge
   **   ~~~   ** Air System Named = CENTRAL SYSTEM did not converge for mass flow rate
   **   ~~~   ** Check values should be zero. Most Recent values listed first.
   **   ~~~   ** Demand-to-Supply interface mass flow rate check value iteration history trace: 7.933955E-002,7.933955E-002,7.933955E-002,7.933955E-002,7.933955E-002,7.933955E-002,7.933955E-002,7.933955E-002,7.933955E-002,7.933955E-002,
   **   ~~~   ** Supply-to-demand interface deck 1 mass flow rate check value iteration history trace: 7.933955E-002,7.933955E-002,7.933955E-002,7.933955E-002,7.933955E-002,7.933955E-002,7.933955E-002,7.933955E-002,7.933955E-002,7.933955E-002,
   **   ~~~   ** Air System Named = CENTRAL SYSTEM did not converge for energy
   **   ~~~   ** Check values should be zero. Most Recent values listed first.
   **   ~~~   ** Demand-to-Supply interface energy check value iteration history trace: 1894.587718,1894.587718,1894.587719,1894.587719,1894.587719,1894.587719,1894.587719,1894.587719,1894.587719,1894.587720,
   **   ~~~   ** Supply-to-demand interface deck 1 energy check value iteration history trace: 924.686348,924.686348,924.686349,924.686349,924.686349,924.686349,924.686349,924.686349,924.686349,924.686349,
   ** Warning ** SimHVAC: Maximum iterations (20) exceeded for all HVAC loops, at ANNUAL, 04/15 09:30 - 09:45
   **   ~~~   ** The solution for one or more of the Air Loop HVAC systems did not appear to converge
   **   ~~~   ** Air System Named = CENTRAL SYSTEM did not converge for energy
   **   ~~~   ** Check values should be zero. Most Recent values listed first.
   **   ~~~   ** Demand-to-Supply interface energy check value iteration history trace: 136.976364,136.976364,136.976364,136.976364,136.976364,136.976364,136.976364,136.976364,136.976364,136.976364,
   **   ~~~   ** Supply-to-demand interface deck 1 energy check value iteration history trace: 63.790925,63.790925,63.790925,63.790925,63.790925,63.790925,63.790925,63.790925,63.790925,63.790925,
   ** Warning ** SimHVAC: Maximum iterations (20) exceeded for all HVAC loops, at ANNUAL, 04/16 08:39 - 08:42
   **   ~~~   ** The solution for one or more of the Air Loop HVAC systems did not appear to converge
   **   ~~~   ** Air System Named = CENTRAL SYSTEM did not converge for mass flow rate
   **   ~~~   ** Check values should be zero. Most Recent values listed first.
   **   ~~~   ** Demand-to-Supply interface mass flow rate check value iteration history trace: 0.138431,0.138431,0.138431,0.138431,0.138431,0.138431,0.138431,0.138431,0.138431,0.138431,
   **   ~~~   ** Supply-to-demand interface deck 1 mass flow rate check value iteration history trace: 0.138431,0.138431,0.138431,0.138431,0.138431,0.138431,0.138431,0.138431,0.138431,0.138431,
   **   ~~~   ** Air System Named = CENTRAL SYSTEM did not converge for energy
   **   ~~~   ** Check values should be zero. Most Recent values listed first.
   **   ~~~   ** Demand-to-Supply interface energy check value iteration history trace: 3292.843721,3292.843721,3292.843721,3292.843722,3292.843722,3292.843722,3292.843722,3292.843723,3292.843723,3292.843723,
   **   ~~~   ** Supply-to-demand interface deck 1 energy check value iteration history trace: 1661.059392,1661.059393,1661.059393,1661.059393,1661.059393,1661.059393,1661.059393,1661.059393,1661.059393,1661.059394,
   ** Warning ** SimHVAC: Maximum iterations (20) exceeded for all HVAC loops, at ANNUAL, 04/16 09:38 - 09:40
   **   ~~~   ** The solution for one or more of the Air Loop HVAC systems did not appear to converge
   **   ~~~   ** Air System Named = CENTRAL SYSTEM did not converge for mass flow rate
   **   ~~~   ** Check values should be zero. Most Recent values listed first.
   **   ~~~   ** Demand-to-Supply interface mass flow rate check value iteration history trace: 0.218947,0.218947,0.218947,0.218947,0.218947,0.218947,0.218947,0.218947,0.218947,0.218947,
   **   ~~~   ** Supply-to-demand interface deck 1 mass flow rate check value iteration history trace: 0.218947,0.218947,0.218947,0.218947,0.218947,0.218947,0.218947,0.218947,0.218947,0.218947,
   **   ~~~   ** Air System Named = CENTRAL SYSTEM did not converge for energy
   **   ~~~   ** Check values should be zero. Most Recent values listed first.
   **   ~~~   ** Demand-to-Supply interface energy check value iteration history trace: 5201.074547,5201.074548,5201.074548,5201.074548,5201.074549,5201.074549,5201.074550,5201.074550,5201.074550,5201.074551,
   **   ~~~   ** Supply-to-demand interface deck 1 energy check value iteration history trace: 2516.552772,2516.552772,2516.552773,2516.552773,2516.552773,2516.552773,2516.552773,2516.552773,2516.552774,2516.552774,
   ** Warning ** SimHVAC: Maximum iterations (20) exceeded for all HVAC loops, at ANNUAL, 04/17 10:26 - 10:30
   **   ~~~   ** The solution for one or more of the Air Loop HVAC systems did not appear to converge
   **   ~~~   ** Air System Named = CENTRAL SYSTEM did not converge for mass flow rate
   **   ~~~   ** Check values should be zero. Most Recent values listed first.
   **   ~~~   ** Demand-to-Supply interface mass flow rate check value iteration history trace: 0.114443,0.114443,0.114443,0.114443,0.114443,0.114443,0.114443,0.114443,0.114443,0.114443,
   **   ~~~   ** Supply-to-demand interface deck 1 mass flow rate check value iteration history trace: 0.114443,0.114443,0.114443,0.114443,0.114443,0.114443,0.114443,0.114443,0.114443,0.114443,
   **   ~~~   ** Air System Named = CENTRAL SYSTEM did not converge for energy
   **   ~~~   ** Check values should be zero. Most Recent values listed first.
   **   ~~~   ** Demand-to-Supply interface energy check value iteration history trace: 2712.260031,2712.260031,2712.260031,2712.260031,2712.260031,2712.260031,2712.260032,2712.260032,2712.260032,2712.260032,
   **   ~~~   ** Supply-to-demand interface deck 1 energy check value iteration history trace: 1151.945745,1151.945745,1151.945745,1151.945746,1151.945746,1151.945746,1151.945746,1151.945746,1151.945746,1151.945746,
   ** Warning ** SimHVAC: Maximum iterations (20) exceeded for all HVAC loops, at ANNUAL, 04/18 11:06 - 11:08
   **   ~~~   ** The solution for one or more of the Air Loop HVAC systems did not appear to converge
   **   ~~~   ** Air System Named = CENTRAL SYSTEM did not converge for mass flow rate
   **   ~~~   ** Check values should be zero. Most Recent values listed first.
   **   ~~~   ** Demand-to-Supply interface mass flow rate check value iteration history trace: 0.197177,0.197177,0.197177,0.197177,0.197177,0.197177,0.197177,0.197177,0.197177,0.197177,
   **   ~~~   ** Supply-to-demand interface deck 1 mass flow rate check value iteration history trace: 0.197177,0.197177,0.197177,0.197177,0.197177,0.197177,0.197177,0.197177,0.197177,0.197177,
   **   ~~~   ** Air System Named = CENTRAL SYSTEM did not converge for energy
   **   ~~~   ** Check values should be zero. Most Recent values listed first.
   **   ~~~   ** Demand-to-Supply interface energy check value iteration history trace: 4667.566446,4667.566447,4667.566448,4667.566448,4667.566449,4667.566450,4667.566450,4667.566451,4667.566452,4667.566453,
   **   ~~~   ** Supply-to-demand interface deck 1 energy check value iteration history trace: 2090.844096,2090.844096,2090.844097,2090.844097,2090.844097,2090.844097,2090.844098,2090.844098,2090.844098,2090.844099,
   ** Warning ** SimHVAC: Maximum iterations (20) exceeded for all HVAC loops, at ANNUAL, 04/18 11:23 - 11:25
   **   ~~~   ** The solution for one or more of the Air Loop HVAC systems did not appear to converge
   **   ~~~   ** Air System Named = CENTRAL SYSTEM did not converge for mass flow rate
   **   ~~~   ** Check values should be zero. Most Recent values listed first.
   **   ~~~   ** Demand-to-Supply interface mass flow rate check value iteration history trace: 0.215613,0.215613,0.215613,0.215613,0.215613,0.215613,0.215613,0.215613,0.215613,0.215613,
   **   ~~~   ** Supply-to-demand interface deck 1 mass flow rate check value iteration history trace: 0.215613,0.215613,0.215613,0.215613,0.215613,0.215613,0.215613,0.215613,0.215613,0.215613,
   **   ~~~   ** Air System Named = CENTRAL SYSTEM did not converge for energy
   **   ~~~   ** Check values should be zero. Most Recent values listed first.
   **   ~~~   ** Demand-to-Supply interface energy check value iteration history trace: 5118.091596,5118.091596,5118.091597,5118.091598,5118.091599,5118.091599,5118.091600,5118.091601,5118.091602,5118.091603,
   **   ~~~   ** Supply-to-demand interface deck 1 energy check value iteration history trace: 2286.646064,2286.646064,2286.646064,2286.646065,2286.646065,2286.646065,2286.646066,2286.646066,2286.646066,2286.646067,
   ** Warning ** SimHVAC: Maximum iterations (20) exceeded for all HVAC loops, at ANNUAL, 04/18 11:35 - 11:38
   **   ~~~   ** The solution for one or more of the Air Loop HVAC systems did not appear to converge
   **   ~~~   ** Air System Named = CENTRAL SYSTEM did not converge for mass flow rate
   **   ~~~   ** Check values should be zero. Most Recent values listed first.
   **   ~~~   ** Demand-to-Supply interface mass flow rate check value iteration history trace: 0.218601,0.218601,0.218601,0.218601,0.218601,0.218601,0.218601,0.218601,0.218601,0.218601,
   **   ~~~   ** Supply-to-demand interface deck 1 mass flow rate check value iteration history trace: 0.218601,0.218601,0.218601,0.218601,0.218601,0.218601,0.218601,0.218601,0.218601,0.218601,
   **   ~~~   ** Air System Named = CENTRAL SYSTEM did not converge for energy
   **   ~~~   ** Check values should be zero. Most Recent values listed first.
   **   ~~~   ** Demand-to-Supply interface energy check value iteration history trace: 5179.855939,5179.855940,5179.855940,5179.855941,5179.855942,5179.855943,5179.855944,5179.855945,5179.855945,5179.855946,
   **   ~~~   ** Supply-to-demand interface deck 1 energy check value iteration history trace: 2297.297643,2297.297643,2297.297644,2297.297644,2297.297644,2297.297645,2297.297645,2297.297646,2297.297646,2297.297646,
   ** Warning ** SimHVAC: Maximum iterations (20) exceeded for all HVAC loops, at ANNUAL, 11/28 08:20 - 08:22
   **   ~~~   ** The solution for one or more of the Air Loop HVAC systems did not appear to converge
   **   ~~~   ** Air System Named = CENTRAL SYSTEM did not converge for mass flow rate
   **   ~~~   ** Check values should be zero. Most Recent values listed first.
   **   ~~~   ** Demand-to-Supply interface mass flow rate check value iteration history trace: 8.931410E-002,8.931410E-002,8.931410E-002,8.931410E-002,8.931410E-002,8.931410E-002,8.931410E-002,8.931410E-002,8.931410E-002,8.931410E-002,
   **   ~~~   ** Supply-to-demand interface deck 1 mass flow rate check value iteration history trace: 8.931410E-002,8.931410E-002,8.931410E-002,8.931410E-002,8.931410E-002,8.931410E-002,8.931410E-002,8.931410E-002,8.931410E-002,8.931410E-002,
   **   ~~~   ** Air System Named = CENTRAL SYSTEM did not converge for energy
   **   ~~~   ** Check values should be zero. Most Recent values listed first.
   **   ~~~   ** Demand-to-Supply interface energy check value iteration history trace: 1770.683759,1770.683759,1770.683758,1770.683758,1770.683758,1770.683758,1770.683758,1770.683758,1770.683758,1770.683758,
   **   ~~~   ** Supply-to-demand interface deck 1 energy check value iteration history trace: 2738.510983,2738.510983,2738.510983,2738.510983,2738.510983,2738.510982,2738.510982,2738.510982,2738.510982,2738.510982,
   ** Warning ** SimHVAC: Maximum iterations (20) exceeded for all HVAC loops, at ANNUAL, 11/28 13:45 - 14:00
   **   ~~~   ** The solution for one or more of the Air Loop HVAC systems did not appear to converge
   **   ~~~   ** Air System Named = CENTRAL SYSTEM did not converge for mass flow rate
   **   ~~~   ** Check values should be zero. Most Recent values listed first.
   **   ~~~   ** Demand-to-Supply interface mass flow rate check value iteration history trace: 0.126577,0.126577,0.126577,0.126577,0.126577,0.126577,0.126577,0.126577,0.126577,0.126577,
   **   ~~~   ** Supply-to-demand interface deck 1 mass flow rate check value iteration history trace: 0.126577,0.126577,0.126577,0.126577,0.126577,0.126577,0.126577,0.126577,0.126577,0.126577,
   **   ~~~   ** Air System Named = CENTRAL SYSTEM did not converge for energy
   **   ~~~   ** Check values should be zero. Most Recent values listed first.
   **   ~~~   ** Demand-to-Supply interface energy check value iteration history trace: 3015.059495,3015.059495,3015.059495,3015.059495,3015.059495,3015.059496,3015.059496,3015.059496,3015.059496,3015.059496,
   **   ~~~   ** Supply-to-demand interface deck 1 energy check value iteration history trace: 1190.122040,1190.122040,1190.122040,1190.122040,1190.122040,1190.122040,1190.122040,1190.122040,1190.122040,1190.122040,
   ************* Simulation Error Summary *************
   ** Warning ** The following Report Variables were requested but not generated -- check.rdd file
   **   ~~~   ** Either the IDF did not contain these elements, the variable name is misspelled,
   **   ~~~   ** or the requested variable is an advanced output which requires Output : Diagnostics, DisplayAdvancedReportVariables;
   ************* Key=*, VarName=BASEBOARD TOTAL HEATING ENERGY, Frequency=
   ************* Key=*, VarName=WATER HEATER NATURALGAS ENERGY, Frequency=
   ************* Key=*, VarName=COOLING COIL TOTAL HEATING ENERGY, Frequency=
   ************* There are 34 unused schedules in input.
   ************* There are 388 unused week schedules in input.
   ************* There are 396 unused day schedules in input.
   ************* Use Output:Diagnostics,DisplayUnusedSchedules; to see them.
   *************
   ************* ===== Recurring Error Summary =====
   ************* The following recurring error messages occurred.
   *************
   *************  ** Warning ** "TOTAL HOT WATER LOAD" - Target water temperature should be less than or equal to the hot water temperature error continues...
   *************  **   ~~~   **   This error occurred 187175 total times;
   *************  **   ~~~   **   during Warmup 0 times;
   *************  **   ~~~   **   during Sizing 0 times.
   *************  **   ~~~   **   Max=11.953514  Min=9.499196E-004
   *************
   *************  ** Warning ** SimHVAC: Exceeding Maximum iterations for all HVAC loops, during ANNUAL continues
   *************  **   ~~~   **   This error occurred 5 total times;
   *************  **   ~~~   **   during Warmup 0 times;
   *************  **   ~~~   **   during Sizing 0 times.
   *************
   *************
   ************* ===== Final Error Summary =====
   ************* The following error categories occurred.  Consider correcting or noting.
   ************* Nominally Unused Constructions
   ************* ..The nominally unused constructions warning is provided to alert you to potential conditions that can cause
   ************* ..extra time during simulation. Each construction is calculated by the algorithm indicated in the HeatBalanceAlgorithm
   ************* ..object. You may remove the constructions indicated (when you use the DisplayExtraWarnings option).
   *************
   ************* EnergyPlus Warmup Error Summary. During Warmup: 1 Warning; 0 Severe Errors.
   ************* EnergyPlus Sizing Error Summary. During Sizing: 4 Warning; 0 Severe Errors.
   ************* EnergyPlus Completed Successfully-- 187211 Warning; 0 Severe Errors; Elapsed Time=00hr 01min 47.24sec
