Program Version,EnergyPlus, Version 22.2.0-c249759bad, YMD=2023.09.01 19:16,
   ************* Beginning Zone Sizing Calculations
   ** Warning ** ProcessScheduleInput: Schedule:Constant="ALWAYS ON DISCRETE", Schedule Type Limits Name="ONOFF" not found -- will not be validated
   ** Warning ** Foundation:Kiva="KIVA FOUNDATION", no Interior Horizontal Insulation Material Name defined
   **   ~~~   ** Interior Horizontal Insulation Depth will not be used.
   ** Warning ** CheckUsedConstructions: There are 15 nominally unused constructions in input.
   **   ~~~   ** Each Unused construction is shown.
   ************* Construction=INTERIOR FLOOR
   ************* Construction=INTERIOR WINDOW
   ************* Construction=EXTERIOR DOOR
   ************* Construction=INTERIOR DOOR
   ************* Construction=GABLE CONSTRUCTION
   ************* Construction=CRAWL_FLOOR
   ************* Construction=INSULATED PIPE
   ************* Construction=PLAIN PIPE
   ************* Construction=TDD PIPE
   ************* Construction=TDD DOME
   ************* Construction=TDD DIFFUSER
   ************* Construction=CRAWL WALL
   ************* Construction=CEILING-FLOOR-LAYER
   ************* Construction=SLAB CONSTRUCTION W FULL R10 INSULATION
   ************* Construction=SLAB CONSTRUCTION W FULL R5 INSULATION
   ** Warning ** GetDXCoils: Coil:Heating:DX:SingleSpeed="DX_HEATING_COIL" curve values
   **   ~~~   ** ... Defrost Energy Input Ratio Function of Temperature Curve Name = DEFROSTEIR output is not equal to 1.0 (+ or - 10%) at rated conditions.
   **   ~~~   ** ... Curve output at rated conditions = 0.152
   ************* Beginning System Sizing Calculations
   ************* Beginning Plant Sizing Calculations
   ** Warning ** SizeDXCoil Coil:Cooling:DX:SingleSpeed DX_COOLING_COIL
   **   ~~~   ** ...Gross Rated Total Cooling Capacity [W] will be limited by the maximum rated volume flow per rated total capacity ratio.
   **   ~~~   ** ...DX coil volume flow rate ( m3/s ) = 0.365406
   **   ~~~   ** ...Requested capacity ( W ) = 6007.513
   **   ~~~   ** ...Requested flow/capacity ratio ( m3/s/W ) = 6.082E-005
   **   ~~~   ** ...Maximum flow/capacity ratio ( m3/s/W ) = 6.041E-005
   **   ~~~   ** ...Adjusted capacity ( W ) = 6048.775
   ** Warning ** SizeDXCoil Coil:Heating:DX:SingleSpeed DX_HEATING_COIL
   **   ~~~   ** ...Gross Rated Heating Capacity [W] will be limited by the maximum rated volume flow per rated total capacity ratio.
   **   ~~~   ** ...DX coil volume flow rate ( m3/s ) = 0.365406
   **   ~~~   ** ...Requested capacity ( W ) = 6048.775
   **   ~~~   ** ...Requested flow/capacity ratio ( m3/s/W ) = 6.041E-005
   **   ~~~   ** ...Maximum flow/capacity ratio ( m3/s/W ) = 6.041E-005
   **   ~~~   ** ...Adjusted capacity ( W ) = 6048.775
   ** Warning ** Coil:WaterHeating:AirToWaterHeatPump:Wrapped "HEAT PUMP WATER HEATER EVAPORATOR": Rated air volume flow rate per watt of rated total water heating capacity is out of range
   **   ~~~   ** Min Rated Vol Flow Per Watt=[4.027E-005], Rated Vol Flow Per Watt=[1.510E-004], Max Rated Vol Flow Per Watt=[8.056E-005]. See Input-Output Reference Manual for valid range.
   ************* SizeFan: : Potential issue with equipment sizing for Fan:OnOff HEAT PUMP WATER HEATER FAN
   **   ~~~   ** User-Specified Maximum Flow Rate [m3/s] = 0.22653
   **   ~~~   ** differs from Design Size Maximum Flow Rate [m3/s] = 7.55250E-002
   **   ~~~   ** This may, or may not, indicate mismatched component sizes.
   **   ~~~   ** Verify that the value entered is intended and is consistent with other components.
   ** Warning ** Water heater = WATER HEATER TANK:  Recovery Efficiency and Energy Factor could not be calculated during the test for standard ratings
   **   ~~~   ** Setpoint was never recovered and/or heater never turned on
   ** Warning ** Check input. Pump nominal power or motor efficiency is set to 0, for pump=MAINS PRESSURE
   ** Warning ** Output:Meter: invalid Key Name="ELECTRIC_RANGE:INTERIOREQUIPMENT:ELECTRICITY" - not found.
   ** Warning ** Output:Meter: invalid Key Name="ELECTRIC_DRYER:INTERIOREQUIPMENT:ELECTRICITY" - not found.
   ** Warning ** Output:Meter: invalid Key Name="HEATRECOVERY:ELECTRICITY" - not found.
   ** Warning ** Output:Meter: invalid Key Name="HEATING:NATURALGAS" - not found.
   ** Warning ** Output:Meter: invalid Key Name="WATERSYSTEMS:NATURALGAS" - not found.
   ** Warning ** Output:Meter: invalid Key Name="PROPANE:FACILITY" - not found.
   ** Warning ** Output:Meter: invalid Key Name="HEATING:PROPANE" - not found.
   ************* Testing Individual Branch Integrity
   ************* All Branches passed integrity testing
   ************* Testing Individual Supply Air Path Integrity
   ************* All Supply Air Paths passed integrity testing
   ************* Testing Individual Return Air Path Integrity
   ************* All Return Air Paths passed integrity testing
   ************* No node connection errors were found.
   ************* Beginning Simulation
   ** Warning ** AirflowNetwork::Solver::validate_distribution: Heat pump water heater is simulated along with an AirflowNetwork but is not included in the AirflowNetwork.
   ** Warning ** CalcEquipmentFlowRates: "TOTAL HOT WATER LOAD" - Target water temperature is greater than the hot water temperature by (1.37 C)
   **   ~~~   **  Environment=EXTREME_WINTER, at Simulation time=01/08 06:45 - 07:00
   **   ~~~   ** ...target water temperature     = 53.33 C
   **   ~~~   ** ...hot water temperature        = 51.96 C
   **   ~~~   ** ...Target water temperature should be less than or equal to the hot water temperature. Verify temperature setpoints and schedules.
   ** Warning ** SimHVAC: Maximum iterations (20) exceeded for all HVAC loops, at ANNUAL, 01/18 10:30 - 10:34
   **   ~~~   ** The solution for one or more of the Air Loop HVAC systems did not appear to converge
   **   ~~~   ** Air System Named = CENTRAL SYSTEM did not converge for mass flow rate
   **   ~~~   ** Check values should be zero. Most Recent values listed first.
   **   ~~~   ** Demand-to-Supply interface mass flow rate check value iteration history trace: 6.879358E-002,6.879358E-002,6.879358E-002,6.879358E-002,6.879358E-002,6.879358E-002,6.879358E-002,6.879358E-002,6.879358E-002,6.879358E-002,
   **   ~~~   ** Supply-to-demand interface deck 1 mass flow rate check value iteration history trace: 6.879358E-002,6.879358E-002,6.879358E-002,6.879358E-002,6.879358E-002,6.879358E-002,6.879358E-002,6.879358E-002,6.879358E-002,6.879358E-002,
   **   ~~~   ** Air System Named = CENTRAL SYSTEM did not converge for energy
   **   ~~~   ** Check values should be zero. Most Recent values listed first.
   **   ~~~   ** Demand-to-Supply interface energy check value iteration history trace: 1360.830447,1360.830447,1360.830447,1360.830447,1360.830447,1360.830447,1360.830447,1360.830447,1360.830446,1360.830446,
   **   ~~~   ** Supply-to-demand interface deck 1 energy check value iteration history trace: 2314.861361,2314.861361,2314.861361,2314.861361,2314.861361,2314.861361,2314.861361,2314.861361,2314.861360,2314.861360,
   ** Warning ** SimHVAC: Maximum iterations (20) exceeded for all HVAC loops, at ANNUAL, 01/19 18:53 - 19:00
   **   ~~~   ** The solution for one or more of the Air Loop HVAC systems did not appear to converge
   **   ~~~   ** Air System Named = CENTRAL SYSTEM did not converge for mass flow rate
   **   ~~~   ** Check values should be zero. Most Recent values listed first.
   **   ~~~   ** Demand-to-Supply interface mass flow rate check value iteration history trace: 7.683284E-002,7.683284E-002,7.683284E-002,7.683284E-002,7.683284E-002,7.683284E-002,7.683284E-002,7.683284E-002,7.683284E-002,7.683284E-002,
   **   ~~~   ** Supply-to-demand interface deck 1 mass flow rate check value iteration history trace: 7.683284E-002,7.683284E-002,7.683284E-002,7.683284E-002,7.683284E-002,7.683284E-002,7.683284E-002,7.683284E-002,7.683284E-002,7.683284E-002,
   **   ~~~   ** Air System Named = CENTRAL SYSTEM did not converge for energy
   **   ~~~   ** Check values should be zero. Most Recent values listed first.
   **   ~~~   ** Demand-to-Supply interface energy check value iteration history trace: 1521.839192,1521.839192,1521.839192,1521.839192,1521.839192,1521.839192,1521.839192,1521.839191,1521.839191,1521.839191,
   **   ~~~   ** Supply-to-demand interface deck 1 energy check value iteration history trace: 2547.265624,2547.265624,2547.265624,2547.265624,2547.265624,2547.265623,2547.265623,2547.265623,2547.265623,2547.265623,
   ** Warning ** SimHVAC: Maximum iterations (20) exceeded for all HVAC loops, at ANNUAL, 01/21 11:17 - 11:20
   **   ~~~   ** The solution for one or more of the Air Loop HVAC systems did not appear to converge
   **   ~~~   ** Air System Named = CENTRAL SYSTEM did not converge for mass flow rate
   **   ~~~   ** Check values should be zero. Most Recent values listed first.
   **   ~~~   ** Demand-to-Supply interface mass flow rate check value iteration history trace: 9.776112E-002,9.776112E-002,9.776112E-002,9.776112E-002,9.776112E-002,9.776112E-002,9.776112E-002,9.776112E-002,9.776112E-002,9.776112E-002,
   **   ~~~   ** Supply-to-demand interface deck 1 mass flow rate check value iteration history trace: 9.776112E-002,9.776112E-002,9.776112E-002,9.776112E-002,9.776112E-002,9.776112E-002,9.776112E-002,9.776112E-002,9.776112E-002,9.776112E-002,
   **   ~~~   ** Air System Named = CENTRAL SYSTEM did not converge for energy
   **   ~~~   ** Check values should be zero. Most Recent values listed first.
   **   ~~~   ** Demand-to-Supply interface energy check value iteration history trace: 1937.405282,1937.405282,1937.405282,1937.405282,1937.405281,1937.405281,1937.405281,1937.405281,1937.405281,1937.405281,
   **   ~~~   ** Supply-to-demand interface deck 1 energy check value iteration history trace: 2998.544323,2998.544323,2998.544323,2998.544323,2998.544322,2998.544322,2998.544322,2998.544322,2998.544322,2998.544322,
   ** Warning ** SimHVAC: Maximum iterations (20) exceeded for all HVAC loops, at ANNUAL, 01/23 10:30 - 10:45
   **   ~~~   ** The solution for one or more of the Air Loop HVAC systems did not appear to converge
   **   ~~~   ** Air System Named = CENTRAL SYSTEM did not converge for mass flow rate
   **   ~~~   ** Check values should be zero. Most Recent values listed first.
   **   ~~~   ** Demand-to-Supply interface mass flow rate check value iteration history trace: 3.347691E-002,3.347691E-002,3.347691E-002,3.347691E-002,3.347691E-002,3.347691E-002,3.347691E-002,3.347691E-002,3.347691E-002,3.347691E-002,
   **   ~~~   ** Supply-to-demand interface deck 1 mass flow rate check value iteration history trace: 3.347691E-002,3.347691E-002,3.347691E-002,3.347691E-002,3.347691E-002,3.347691E-002,3.347691E-002,3.347691E-002,3.347691E-002,3.347691E-002,
   **   ~~~   ** Air System Named = CENTRAL SYSTEM did not converge for energy
   **   ~~~   ** Check values should be zero. Most Recent values listed first.
   **   ~~~   ** Demand-to-Supply interface energy check value iteration history trace: 663.386415,663.386414,663.386414,663.386414,663.386414,663.386414,663.386414,663.386414,663.386414,663.386414,
   **   ~~~   ** Supply-to-demand interface deck 1 energy check value iteration history trace: 1022.315018,1022.315018,1022.315018,1022.315018,1022.315018,1022.315018,1022.315018,1022.315018,1022.315018,1022.315018,
   ** Warning ** SimHVAC: Maximum iterations (20) exceeded for all HVAC loops, at ANNUAL, 02/09 10:03 - 10:06
   **   ~~~   ** The solution for one or more of the Air Loop HVAC systems did not appear to converge
   **   ~~~   ** Air System Named = CENTRAL SYSTEM did not converge for mass flow rate
   **   ~~~   ** Check values should be zero. Most Recent values listed first.
   **   ~~~   ** Demand-to-Supply interface mass flow rate check value iteration history trace: 9.868221E-002,9.868221E-002,9.868221E-002,9.868221E-002,9.868221E-002,9.868221E-002,9.868221E-002,9.868221E-002,9.868221E-002,9.868221E-002,
   **   ~~~   ** Supply-to-demand interface deck 1 mass flow rate check value iteration history trace: 9.868221E-002,9.868221E-002,9.868221E-002,9.868221E-002,9.868221E-002,9.868221E-002,9.868221E-002,9.868221E-002,9.868221E-002,9.868221E-002,
   **   ~~~   ** Air System Named = CENTRAL SYSTEM did not converge for energy
   **   ~~~   ** Check values should be zero. Most Recent values listed first.
   **   ~~~   ** Demand-to-Supply interface energy check value iteration history trace: 1955.590274,1955.590274,1955.590274,1955.590273,1955.590273,1955.590273,1955.590273,1955.590273,1955.590273,1955.590273,
   **   ~~~   ** Supply-to-demand interface deck 1 energy check value iteration history trace: 3076.586753,3076.586753,3076.586753,3076.586752,3076.586752,3076.586752,3076.586752,3076.586752,3076.586752,3076.586751,
   ** Warning ** SimHVAC: Maximum iterations (20) exceeded for all HVAC loops, at ANNUAL, 02/09 12:15 - 12:30
   **   ~~~   ** The solution for one or more of the Air Loop HVAC systems did not appear to converge
   **   ~~~   ** Air System Named = CENTRAL SYSTEM did not converge for mass flow rate
   **   ~~~   ** Check values should be zero. Most Recent values listed first.
   **   ~~~   ** Demand-to-Supply interface mass flow rate check value iteration history trace: 6.734170E-002,6.734170E-002,6.734170E-002,6.734170E-002,6.734170E-002,6.734170E-002,6.734170E-002,6.734170E-002,6.734170E-002,6.734170E-002,
   **   ~~~   ** Supply-to-demand interface deck 1 mass flow rate check value iteration history trace: 6.734170E-002,6.734170E-002,6.734170E-002,6.734170E-002,6.734170E-002,6.734170E-002,6.734170E-002,6.734170E-002,6.734170E-002,6.734170E-002,
   **   ~~~   ** Air System Named = CENTRAL SYSTEM did not converge for energy
   **   ~~~   ** Check values should be zero. Most Recent values listed first.
   **   ~~~   ** Demand-to-Supply interface energy check value iteration history trace: 1315.469944,1315.469944,1315.469944,1315.469944,1315.469944,1315.469944,1315.469944,1315.469944,1315.469944,1315.469944,
   **   ~~~   ** Supply-to-demand interface deck 1 energy check value iteration history trace: 2225.613621,2225.613621,2225.613621,2225.613621,2225.613621,2225.613621,2225.613620,2225.613620,2225.613620,2225.613620,
   ** Warning ** SimHVAC: Maximum iterations (20) exceeded for all HVAC loops, at ANNUAL, 02/25 11:15 - 11:19
   **   ~~~   ** The solution for one or more of the Air Loop HVAC systems did not appear to converge
   **   ~~~   ** Air System Named = CENTRAL SYSTEM did not converge for mass flow rate
   **   ~~~   ** Check values should be zero. Most Recent values listed first.
   **   ~~~   ** Demand-to-Supply interface mass flow rate check value iteration history trace: 9.368663E-002,9.368663E-002,9.368663E-002,9.368663E-002,9.368663E-002,9.368663E-002,9.368663E-002,9.368663E-002,9.368663E-002,9.368663E-002,
   **   ~~~   ** Supply-to-demand interface deck 1 mass flow rate check value iteration history trace: 9.368663E-002,9.368663E-002,9.368663E-002,9.368663E-002,9.368663E-002,9.368663E-002,9.368663E-002,9.368663E-002,9.368663E-002,9.368663E-002,
   **   ~~~   ** Air System Named = CENTRAL SYSTEM did not converge for energy
   **   ~~~   ** Check values should be zero. Most Recent values listed first.
   **   ~~~   ** Demand-to-Supply interface energy check value iteration history trace: 1856.622339,1856.622339,1856.622339,1856.622339,1856.622338,1856.622338,1856.622338,1856.622338,1856.622338,1856.622338,
   **   ~~~   ** Supply-to-demand interface deck 1 energy check value iteration history trace: 2865.226384,2865.226384,2865.226384,2865.226384,2865.226383,2865.226383,2865.226383,2865.226383,2865.226383,2865.226382,
   ** Warning ** SimHVAC: Maximum iterations (20) exceeded for all HVAC loops, at ANNUAL, 02/26 14:15 - 14:30
   **   ~~~   ** The solution for one or more of the Air Loop HVAC systems did not appear to converge
   **   ~~~   ** Air System Named = CENTRAL SYSTEM did not converge for mass flow rate
   **   ~~~   ** Check values should be zero. Most Recent values listed first.
   **   ~~~   ** Demand-to-Supply interface mass flow rate check value iteration history trace: 6.635283E-002,6.635283E-002,6.635283E-002,6.635283E-002,6.635283E-002,6.635283E-002,6.635283E-002,6.635283E-002,6.635283E-002,6.635283E-002,
   **   ~~~   ** Supply-to-demand interface deck 1 mass flow rate check value iteration history trace: 6.635283E-002,6.635283E-002,6.635283E-002,6.635283E-002,6.635283E-002,6.635283E-002,6.635283E-002,6.635283E-002,6.635283E-002,6.635283E-002,
   **   ~~~   ** Air System Named = CENTRAL SYSTEM did not converge for energy
   **   ~~~   ** Check values should be zero. Most Recent values listed first.
   **   ~~~   ** Demand-to-Supply interface energy check value iteration history trace: 1314.930439,1314.930438,1314.930438,1314.930438,1314.930438,1314.930438,1314.930438,1314.930438,1314.930438,1314.930438,
   **   ~~~   ** Supply-to-demand interface deck 1 energy check value iteration history trace: 2233.614915,2233.614915,2233.614915,2233.614915,2233.614915,2233.614915,2233.614915,2233.614915,2233.614915,2233.614914,
   ** Warning ** SimHVAC: Maximum iterations (20) exceeded for all HVAC loops, at ANNUAL, 03/05 09:45 - 10:00
   **   ~~~   ** The solution for one or more of the Air Loop HVAC systems did not appear to converge
   **   ~~~   ** Air System Named = CENTRAL SYSTEM did not converge for mass flow rate
   **   ~~~   ** Check values should be zero. Most Recent values listed first.
   **   ~~~   ** Demand-to-Supply interface mass flow rate check value iteration history trace: 3.823484E-002,3.823484E-002,3.823484E-002,3.823484E-002,3.823484E-002,3.823484E-002,3.823484E-002,3.823484E-002,3.823484E-002,3.823484E-002,
   **   ~~~   ** Supply-to-demand interface deck 1 mass flow rate check value iteration history trace: 3.823484E-002,3.823484E-002,3.823484E-002,3.823484E-002,3.823484E-002,3.823484E-002,3.823484E-002,3.823484E-002,3.823484E-002,3.823484E-002,
   **   ~~~   ** Air System Named = CENTRAL SYSTEM did not converge for energy
   **   ~~~   ** Check values should be zero. Most Recent values listed first.
   **   ~~~   ** Demand-to-Supply interface energy check value iteration history trace: 757.775631,757.775631,757.775631,757.775631,757.775631,757.775631,757.775631,757.775631,757.775631,757.775631,
   **   ~~~   ** Supply-to-demand interface deck 1 energy check value iteration history trace: 1398.822148,1398.822148,1398.822148,1398.822148,1398.822148,1398.822148,1398.822148,1398.822148,1398.822148,1398.822148,
   ** Warning ** SimHVAC: Maximum iterations (20) exceeded for all HVAC loops, at ANNUAL, 03/15 10:00 - 10:02
   **   ~~~   ** The solution for one or more of the Air Loop HVAC systems did not appear to converge
   **   ~~~   ** Air System Named = CENTRAL SYSTEM did not converge for mass flow rate
   **   ~~~   ** Check values should be zero. Most Recent values listed first.
   **   ~~~   ** Demand-to-Supply interface mass flow rate check value iteration history trace: 6.906178E-002,6.906178E-002,6.906178E-002,6.906178E-002,6.906178E-002,6.906178E-002,6.906178E-002,6.906178E-002,6.906178E-002,6.906178E-002,
   **   ~~~   ** Supply-to-demand interface deck 1 mass flow rate check value iteration history trace: 6.906178E-002,6.906178E-002,6.906178E-002,6.906178E-002,6.906178E-002,6.906178E-002,6.906178E-002,6.906178E-002,6.906178E-002,6.906178E-002,
   **   ~~~   ** Air System Named = CENTRAL SYSTEM did not converge for energy
   **   ~~~   ** Check values should be zero. Most Recent values listed first.
   **   ~~~   ** Demand-to-Supply interface energy check value iteration history trace: 1368.568513,1368.568513,1368.568513,1368.568513,1368.568513,1368.568513,1368.568513,1368.568513,1368.568513,1368.568513,
   **   ~~~   ** Supply-to-demand interface deck 1 energy check value iteration history trace: 2372.240871,2372.240871,2372.240871,2372.240871,2372.240871,2372.240870,2372.240870,2372.240870,2372.240870,2372.240870,
   ** Warning ** SimHVAC: Maximum iterations (20) exceeded for all HVAC loops, at ANNUAL, 03/23 12:45 - 12:47
   **   ~~~   ** The solution for one or more of the Air Loop HVAC systems did not appear to converge
   **   ~~~   ** Air System Named = CENTRAL SYSTEM did not converge for mass flow rate
   **   ~~~   ** Check values should be zero. Most Recent values listed first.
   **   ~~~   ** Demand-to-Supply interface mass flow rate check value iteration history trace: 5.972519E-002,5.972519E-002,5.972519E-002,5.972519E-002,5.972519E-002,5.972519E-002,5.972519E-002,5.972519E-002,5.972519E-002,5.972519E-002,
   **   ~~~   ** Supply-to-demand interface deck 1 mass flow rate check value iteration history trace: 5.972519E-002,5.972519E-002,5.972519E-002,5.972519E-002,5.972519E-002,5.972519E-002,5.972519E-002,5.972519E-002,5.972519E-002,5.972519E-002,
   **   ~~~   ** Air System Named = CENTRAL SYSTEM did not converge for energy
   **   ~~~   ** Check values should be zero. Most Recent values listed first.
   **   ~~~   ** Demand-to-Supply interface energy check value iteration history trace: 1180.559839,1180.559839,1180.559838,1180.559838,1180.559838,1180.559838,1180.559838,1180.559838,1180.559838,1180.559838,
   **   ~~~   ** Supply-to-demand interface deck 1 energy check value iteration history trace: 2015.602057,2015.602057,2015.602057,2015.602057,2015.602057,2015.602057,2015.602057,2015.602057,2015.602057,2015.602056,
   ** Warning ** SimHVAC: Maximum iterations (20) exceeded for all HVAC loops, at ANNUAL, 04/28 09:30 - 09:35
   **   ~~~   ** The solution for one or more of the Air Loop HVAC systems did not appear to converge
   **   ~~~   ** Air System Named = CENTRAL SYSTEM did not converge for mass flow rate
   **   ~~~   ** Check values should be zero. Most Recent values listed first.
   **   ~~~   ** Demand-to-Supply interface mass flow rate check value iteration history trace: 6.087820E-002,6.087820E-002,6.087820E-002,6.087820E-002,6.087820E-002,6.087820E-002,6.087820E-002,6.087820E-002,6.087820E-002,6.087820E-002,
   **   ~~~   ** Supply-to-demand interface deck 1 mass flow rate check value iteration history trace: 6.087820E-002,6.087820E-002,6.087820E-002,6.087820E-002,6.087820E-002,6.087820E-002,6.087820E-002,6.087820E-002,6.087820E-002,6.087820E-002,
   **   ~~~   ** Air System Named = CENTRAL SYSTEM did not converge for energy
   **   ~~~   ** Check values should be zero. Most Recent values listed first.
   **   ~~~   ** Demand-to-Supply interface energy check value iteration history trace: 1206.333967,1206.333967,1206.333967,1206.333967,1206.333967,1206.333967,1206.333967,1206.333967,1206.333967,1206.333966,
   **   ~~~   ** Supply-to-demand interface deck 1 energy check value iteration history trace: 2092.431678,2092.431678,2092.431678,2092.431678,2092.431678,2092.431678,2092.431677,2092.431677,2092.431677,2092.431677,
   ** Warning ** SimHVAC: Maximum iterations (20) exceeded for all HVAC loops, at ANNUAL, 05/27 01:08 - 01:15
   **   ~~~   ** The solution for one or more of the Air Loop HVAC systems did not appear to converge
   **   ~~~   ** Air System Named = CENTRAL SYSTEM did not converge for mass flow rate
   **   ~~~   ** Check values should be zero. Most Recent values listed first.
   **   ~~~   ** Demand-to-Supply interface mass flow rate check value iteration history trace: 6.592095E-002,6.592095E-002,6.592095E-002,6.592095E-002,6.592095E-002,6.592095E-002,6.592095E-002,6.592095E-002,6.592095E-002,6.592095E-002,
   **   ~~~   ** Supply-to-demand interface deck 1 mass flow rate check value iteration history trace: 6.592095E-002,6.592095E-002,6.592095E-002,6.592095E-002,6.592095E-002,6.592095E-002,6.592095E-002,6.592095E-002,6.592095E-002,6.592095E-002,
   **   ~~~   ** Air System Named = CENTRAL SYSTEM did not converge for energy
   **   ~~~   ** Check values should be zero. Most Recent values listed first.
   **   ~~~   ** Demand-to-Supply interface energy check value iteration history trace: 1637.249866,1637.249867,1637.249867,1637.249868,1637.249868,1637.249869,1637.249869,1637.249870,1637.249870,1637.249871,
   **   ~~~   ** Supply-to-demand interface deck 1 energy check value iteration history trace: 827.716750,827.716751,827.716751,827.716751,827.716751,827.716752,827.716752,827.716752,827.716753,827.716753,
   ** Warning ** SimHVAC: Maximum iterations (20) exceeded for all HVAC loops, at ANNUAL, 10/18 11:00 - 11:15
   **   ~~~   ** The solution for one or more of the Air Loop HVAC systems did not appear to converge
   **   ~~~   ** Air System Named = CENTRAL SYSTEM did not converge for mass flow rate
   **   ~~~   ** Check values should be zero. Most Recent values listed first.
   **   ~~~   ** Demand-to-Supply interface mass flow rate check value iteration history trace: 9.731920E-002,9.731920E-002,9.731920E-002,9.731920E-002,9.731920E-002,9.731920E-002,9.731920E-002,9.731920E-002,9.731920E-002,9.731920E-002,
   **   ~~~   ** Supply-to-demand interface deck 1 mass flow rate check value iteration history trace: 9.731920E-002,9.731920E-002,9.731920E-002,9.731920E-002,9.731920E-002,9.731920E-002,9.731920E-002,9.731920E-002,9.731920E-002,9.731920E-002,
   **   ~~~   ** Air System Named = CENTRAL SYSTEM did not converge for energy
   **   ~~~   ** Check values should be zero. Most Recent values listed first.
   **   ~~~   ** Demand-to-Supply interface energy check value iteration history trace: 2317.595110,2317.595110,2317.595110,2317.595111,2317.595111,2317.595112,2317.595112,2317.595113,2317.595113,2317.595114,
   **   ~~~   ** Supply-to-demand interface deck 1 energy check value iteration history trace: 1084.899151,1084.899151,1084.899151,1084.899152,1084.899152,1084.899152,1084.899152,1084.899152,1084.899153,1084.899153,
   ************* Simulation Error Summary *************
   ** Warning ** The following Report Variables were requested but not generated -- check.rdd file
   **   ~~~   ** Either the IDF did not contain these elements, the variable name is misspelled,
   **   ~~~   ** or the requested variable is an advanced output which requires Output : Diagnostics, DisplayAdvancedReportVariables;
   ************* Key=*, VarName=BASEBOARD TOTAL HEATING ENERGY, Frequency=
   ************* Key=*, VarName=WATER HEATER NATURALGAS ENERGY, Frequency=
   ************* Key=*, VarName=COOLING COIL TOTAL HEATING ENERGY, Frequency=
   ************* There are 34 unused schedules in input.
   ************* There are 388 unused week schedules in input.
   ************* There are 397 unused day schedules in input.
   ************* Use Output:Diagnostics,DisplayUnusedSchedules; to see them.
   *************
   ************* ===== Recurring Error Summary =====
   ************* The following recurring error messages occurred.
   *************
   *************  ** Warning ** "TOTAL HOT WATER LOAD" - Target water temperature should be less than or equal to the hot water temperature error continues...
   *************  **   ~~~   **   This error occurred 104087 total times;
   *************  **   ~~~   **   during Warmup 0 times;
   *************  **   ~~~   **   during Sizing 0 times.
   *************  **   ~~~   **   Max=9.625061  Min=1.265078E-003
   *************
   *************  ** Warning ** SimHVAC: Exceeding Maximum iterations for all HVAC loops, during ANNUAL continues
   *************  **   ~~~   **   This error occurred 9 total times;
   *************  **   ~~~   **   during Warmup 0 times;
   *************  **   ~~~   **   during Sizing 0 times.
   *************
   *************
   ************* ===== Final Error Summary =====
   ************* The following error categories occurred.  Consider correcting or noting.
   ************* Nominally Unused Constructions
   ************* ..The nominally unused constructions warning is provided to alert you to potential conditions that can cause
   ************* ..extra time during simulation. Each construction is calculated by the algorithm indicated in the HeatBalanceAlgorithm
   ************* ..object. You may remove the constructions indicated (when you use the DisplayExtraWarnings option).
   *************
   ************* EnergyPlus Warmup Error Summary. During Warmup: 1 Warning; 0 Severe Errors.
   ************* EnergyPlus Sizing Error Summary. During Sizing: 4 Warning; 0 Severe Errors.
   ************* EnergyPlus Completed Successfully-- 104129 Warning; 0 Severe Errors; Elapsed Time=00hr 01min 34.78sec
