Program Version,EnergyPlus, Version 22.2.0-c249759bad, YMD=2023.09.01 20:04,
   ************* Beginning Zone Sizing Calculations
   ** Warning ** ProcessScheduleInput: Schedule:Constant="ALWAYS ON DISCRETE", Schedule Type Limits Name="ONOFF" not found -- will not be validated
   ** Warning ** Foundation:Kiva="KIVA FOUNDATION", no Interior Horizontal Insulation Material Name defined
   **   ~~~   ** Interior Horizontal Insulation Depth will not be used.
   ** Warning ** CheckUsedConstructions: There are 15 nominally unused constructions in input.
   **   ~~~   ** Each Unused construction is shown.
   ************* Construction=INTERIOR FLOOR
   ************* Construction=INTERIOR WINDOW
   ************* Construction=EXTERIOR DOOR
   ************* Construction=INTERIOR DOOR
   ************* Construction=GABLE CONSTRUCTION
   ************* Construction=CRAWL_FLOOR
   ************* Construction=INSULATED PIPE
   ************* Construction=PLAIN PIPE
   ************* Construction=TDD PIPE
   ************* Construction=TDD DOME
   ************* Construction=TDD DIFFUSER
   ************* Construction=CRAWL WALL
   ************* Construction=CEILING-FLOOR-LAYER
   ************* Construction=SLAB CONSTRUCTION W FULL R10 INSULATION
   ************* Construction=SLAB CONSTRUCTION W FULL R5 INSULATION
   ** Warning ** GetDXCoils: Coil:Heating:DX:SingleSpeed="DX_HEATING_COIL" curve values
   **   ~~~   ** ... Defrost Energy Input Ratio Function of Temperature Curve Name = DEFROSTEIR output is not equal to 1.0 (+ or - 10%) at rated conditions.
   **   ~~~   ** ... Curve output at rated conditions = 0.152
   ************* Beginning System Sizing Calculations
   ************* Beginning Plant Sizing Calculations
   ** Warning ** Coil:WaterHeating:AirToWaterHeatPump:Wrapped "HEAT PUMP WATER HEATER EVAPORATOR": Rated air volume flow rate per watt of rated total water heating capacity is out of range
   **   ~~~   ** Min Rated Vol Flow Per Watt=[4.027E-005], Rated Vol Flow Per Watt=[1.510E-004], Max Rated Vol Flow Per Watt=[8.056E-005]. See Input-Output Reference Manual for valid range.
   ************* SizeFan: : Potential issue with equipment sizing for Fan:OnOff HEAT PUMP WATER HEATER FAN
   **   ~~~   ** User-Specified Maximum Flow Rate [m3/s] = 0.22653
   **   ~~~   ** differs from Design Size Maximum Flow Rate [m3/s] = 7.55250E-002
   **   ~~~   ** This may, or may not, indicate mismatched component sizes.
   **   ~~~   ** Verify that the value entered is intended and is consistent with other components.
   ** Warning ** Water heater = WATER HEATER TANK:  Recovery Efficiency and Energy Factor could not be calculated during the test for standard ratings
   **   ~~~   ** Setpoint was never recovered and/or heater never turned on
   ** Warning ** Check input. Pump nominal power or motor efficiency is set to 0, for pump=MAINS PRESSURE
   ** Warning ** Output:Meter: invalid Key Name="ELECTRIC_RANGE:INTERIOREQUIPMENT:ELECTRICITY" - not found.
   ** Warning ** Output:Meter: invalid Key Name="ELECTRIC_DRYER:INTERIOREQUIPMENT:ELECTRICITY" - not found.
   ** Warning ** Output:Meter: invalid Key Name="HEATRECOVERY:ELECTRICITY" - not found.
   ** Warning ** Output:Meter: invalid Key Name="HEATING:NATURALGAS" - not found.
   ** Warning ** Output:Meter: invalid Key Name="WATERSYSTEMS:NATURALGAS" - not found.
   ** Warning ** Output:Meter: invalid Key Name="PROPANE:FACILITY" - not found.
   ** Warning ** Output:Meter: invalid Key Name="HEATING:PROPANE" - not found.
   ************* Testing Individual Branch Integrity
   ************* All Branches passed integrity testing
   ************* Testing Individual Supply Air Path Integrity
   ************* All Supply Air Paths passed integrity testing
   ************* Testing Individual Return Air Path Integrity
   ************* All Return Air Paths passed integrity testing
   ************* No node connection errors were found.
   ************* Beginning Simulation
   ** Warning ** AirflowNetwork::Solver::validate_distribution: Heat pump water heater is simulated along with an AirflowNetwork but is not included in the AirflowNetwork.
   ** Warning ** CalcEquipmentFlowRates: "TOTAL HOT WATER LOAD" - Target water temperature is greater than the hot water temperature by (4.69 C)
   **   ~~~   **  Environment=EXTREME_WINTER, at Simulation time=12/22 07:00 - 07:15
   **   ~~~   ** ...target water temperature     = 53.33 C
   **   ~~~   ** ...hot water temperature        = 48.64 C
   **   ~~~   ** ...Target water temperature should be less than or equal to the hot water temperature. Verify temperature setpoints and schedules.
   ** Warning ** SimHVAC: Maximum iterations (20) exceeded for all HVAC loops, at ANNUAL, 01/14 10:15 - 10:19
   **   ~~~   ** The solution for one or more of the Air Loop HVAC systems did not appear to converge
   **   ~~~   ** Air System Named = CENTRAL SYSTEM did not converge for mass flow rate
   **   ~~~   ** Check values should be zero. Most Recent values listed first.
   **   ~~~   ** Demand-to-Supply interface mass flow rate check value iteration history trace: 7.390396E-002,7.390396E-002,7.390396E-002,7.390396E-002,7.390396E-002,7.390396E-002,7.390396E-002,7.390396E-002,7.390396E-002,7.390396E-002,
   **   ~~~   ** Supply-to-demand interface deck 1 mass flow rate check value iteration history trace: 7.390396E-002,7.390396E-002,7.390396E-002,7.390396E-002,7.390396E-002,7.390396E-002,7.390396E-002,7.390396E-002,7.390396E-002,7.390396E-002,
   **   ~~~   ** Air System Named = CENTRAL SYSTEM did not converge for energy
   **   ~~~   ** Check values should be zero. Most Recent values listed first.
   **   ~~~   ** Demand-to-Supply interface energy check value iteration history trace: 1464.481173,1464.481173,1464.481173,1464.481173,1464.481173,1464.481173,1464.481173,1464.481173,1464.481173,1464.481172,
   **   ~~~   ** Supply-to-demand interface deck 1 energy check value iteration history trace: 2526.283489,2526.283489,2526.283489,2526.283488,2526.283488,2526.283488,2526.283488,2526.283488,2526.283488,2526.283488,
   ** Warning ** SimHVAC: Maximum iterations (20) exceeded for all HVAC loops, at ANNUAL, 02/23 14:00 - 14:15
   **   ~~~   ** The solution for one or more of the Air Loop HVAC systems did not appear to converge
   **   ~~~   ** Air System Named = CENTRAL SYSTEM did not converge for mass flow rate
   **   ~~~   ** Check values should be zero. Most Recent values listed first.
   **   ~~~   ** Demand-to-Supply interface mass flow rate check value iteration history trace: 5.244251E-002,5.244251E-002,5.244251E-002,5.244251E-002,5.244251E-002,5.244251E-002,5.244251E-002,5.244251E-002,5.244251E-002,5.244251E-002,
   **   ~~~   ** Supply-to-demand interface deck 1 mass flow rate check value iteration history trace: 5.244251E-002,5.244251E-002,5.244251E-002,5.244251E-002,5.244251E-002,5.244251E-002,5.244251E-002,5.244251E-002,5.244251E-002,5.244251E-002,
   **   ~~~   ** Air System Named = CENTRAL SYSTEM did not converge for energy
   **   ~~~   ** Check values should be zero. Most Recent values listed first.
   **   ~~~   ** Demand-to-Supply interface energy check value iteration history trace: 1037.825786,1037.825786,1037.825786,1037.825786,1037.825786,1037.825786,1037.825786,1037.825786,1037.825786,1037.825786,
   **   ~~~   ** Supply-to-demand interface deck 1 energy check value iteration history trace: 1774.078452,1774.078451,1774.078451,1774.078451,1774.078451,1774.078451,1774.078451,1774.078451,1774.078451,1774.078451,
   ** Warning ** SimHVAC: Maximum iterations (20) exceeded for all HVAC loops, at ANNUAL, 03/13 12:30 - 12:45
   **   ~~~   ** The solution for one or more of the Air Loop HVAC systems did not appear to converge
   **   ~~~   ** Air System Named = CENTRAL SYSTEM did not converge for mass flow rate
   **   ~~~   ** Check values should be zero. Most Recent values listed first.
   **   ~~~   ** Demand-to-Supply interface mass flow rate check value iteration history trace: 5.958917E-002,5.958917E-002,5.958917E-002,5.958917E-002,5.958917E-002,5.958917E-002,5.958917E-002,5.958917E-002,5.958917E-002,5.958917E-002,
   **   ~~~   ** Supply-to-demand interface deck 1 mass flow rate check value iteration history trace: 5.958917E-002,5.958917E-002,5.958917E-002,5.958917E-002,5.958917E-002,5.958917E-002,5.958917E-002,5.958917E-002,5.958917E-002,5.958917E-002,
   **   ~~~   ** Air System Named = CENTRAL SYSTEM did not converge for energy
   **   ~~~   ** Check values should be zero. Most Recent values listed first.
   **   ~~~   ** Demand-to-Supply interface energy check value iteration history trace: 1180.907020,1180.907020,1180.907020,1180.907020,1180.907020,1180.907020,1180.907020,1180.907020,1180.907020,1180.907020,
   **   ~~~   ** Supply-to-demand interface deck 1 energy check value iteration history trace: 2009.109585,2009.109585,2009.109585,2009.109585,2009.109584,2009.109584,2009.109584,2009.109584,2009.109584,2009.109584,
   ** Warning ** SimHVAC: Maximum iterations (20) exceeded for all HVAC loops, at ANNUAL, 03/15 12:15 - 12:30
   **   ~~~   ** The solution for one or more of the Air Loop HVAC systems did not appear to converge
   **   ~~~   ** Air System Named = CENTRAL SYSTEM did not converge for mass flow rate
   **   ~~~   ** Check values should be zero. Most Recent values listed first.
   **   ~~~   ** Demand-to-Supply interface mass flow rate check value iteration history trace: 5.706304E-002,5.706304E-002,5.706304E-002,5.706304E-002,5.706304E-002,5.706304E-002,5.706304E-002,5.706304E-002,5.706304E-002,5.706304E-002,
   **   ~~~   ** Supply-to-demand interface deck 1 mass flow rate check value iteration history trace: 5.706304E-002,5.706304E-002,5.706304E-002,5.706304E-002,5.706304E-002,5.706304E-002,5.706304E-002,5.706304E-002,5.706304E-002,5.706304E-002,
   **   ~~~   ** Air System Named = CENTRAL SYSTEM did not converge for energy
   **   ~~~   ** Check values should be zero. Most Recent values listed first.
   **   ~~~   ** Demand-to-Supply interface energy check value iteration history trace: 1130.988112,1130.988112,1130.988112,1130.988112,1130.988112,1130.988111,1130.988111,1130.988111,1130.988111,1130.988111,
   **   ~~~   ** Supply-to-demand interface deck 1 energy check value iteration history trace: 2040.661979,2040.661978,2040.661978,2040.661978,2040.661978,2040.661978,2040.661978,2040.661978,2040.661978,2040.661978,
   ** Warning ** SimHVAC: Maximum iterations (20) exceeded for all HVAC loops, at ANNUAL, 03/29 11:53 - 11:56
   **   ~~~   ** The solution for one or more of the Air Loop HVAC systems did not appear to converge
   **   ~~~   ** Air System Named = CENTRAL SYSTEM did not converge for mass flow rate
   **   ~~~   ** Check values should be zero. Most Recent values listed first.
   **   ~~~   ** Demand-to-Supply interface mass flow rate check value iteration history trace: 6.414313E-002,6.414313E-002,6.414313E-002,6.414313E-002,6.414313E-002,6.414313E-002,6.414313E-002,6.414313E-002,6.414313E-002,6.414313E-002,
   **   ~~~   ** Supply-to-demand interface deck 1 mass flow rate check value iteration history trace: 6.414313E-002,6.414313E-002,6.414313E-002,6.414313E-002,6.414313E-002,6.414313E-002,6.414313E-002,6.414313E-002,6.414313E-002,6.414313E-002,
   **   ~~~   ** Air System Named = CENTRAL SYSTEM did not converge for energy
   **   ~~~   ** Check values should be zero. Most Recent values listed first.
   **   ~~~   ** Demand-to-Supply interface energy check value iteration history trace: 1263.257045,1263.257045,1263.257045,1263.257045,1263.257045,1263.257045,1263.257045,1263.257045,1263.257045,1263.257045,
   **   ~~~   ** Supply-to-demand interface deck 1 energy check value iteration history trace: 2180.771620,2180.771620,2180.771619,2180.771619,2180.771619,2180.771619,2180.771619,2180.771619,2180.771619,2180.771619,
   ** Warning ** SimHVAC: Maximum iterations (20) exceeded for all HVAC loops, at ANNUAL, 04/20 09:00 - 09:05
   **   ~~~   ** The solution for one or more of the Air Loop HVAC systems did not appear to converge
   **   ~~~   ** Air System Named = CENTRAL SYSTEM did not converge for mass flow rate
   **   ~~~   ** Check values should be zero. Most Recent values listed first.
   **   ~~~   ** Demand-to-Supply interface mass flow rate check value iteration history trace: 7.084229E-002,7.084229E-002,7.084229E-002,7.084229E-002,7.084229E-002,7.084229E-002,7.084229E-002,7.084229E-002,7.084229E-002,7.084229E-002,
   **   ~~~   ** Supply-to-demand interface deck 1 mass flow rate check value iteration history trace: 7.084229E-002,7.084229E-002,7.084229E-002,7.084229E-002,7.084229E-002,7.084229E-002,7.084229E-002,7.084229E-002,7.084229E-002,7.084229E-002,
   **   ~~~   ** Air System Named = CENTRAL SYSTEM did not converge for energy
   **   ~~~   ** Check values should be zero. Most Recent values listed first.
   **   ~~~   ** Demand-to-Supply interface energy check value iteration history trace: 1395.623400,1395.623399,1395.623399,1395.623399,1395.623399,1395.623399,1395.623398,1395.623398,1395.623398,1395.623398,
   **   ~~~   ** Supply-to-demand interface deck 1 energy check value iteration history trace: 2485.109421,2485.109420,2485.109420,2485.109420,2485.109419,2485.109419,2485.109418,2485.109418,2485.109417,2485.109417,
   **   ~~~   ** Node named ZONE INLET NODE shows oscillating temperatures across iterations with a repeated value of 34.910360
   **   ~~~   ** Node named ZONE INLET NODE temperature [C] iteration history trace (most recent first): 34.910360,34.910359,34.910359,34.910359,34.910359,34.910359,34.910358,34.910358,34.910358,34.910358,
   ** Warning ** SimHVAC: Maximum iterations (20) exceeded for all HVAC loops, at ANNUAL, 05/22 08:00 - 08:15
   **   ~~~   ** The solution for one or more of the Air Loop HVAC systems did not appear to converge
   **   ~~~   ** Air System Named = CENTRAL SYSTEM did not converge for mass flow rate
   **   ~~~   ** Check values should be zero. Most Recent values listed first.
   **   ~~~   ** Demand-to-Supply interface mass flow rate check value iteration history trace: 6.145182E-002,6.145182E-002,6.145182E-002,6.145182E-002,6.145182E-002,6.145182E-002,6.145182E-002,6.145182E-002,6.145182E-002,6.145182E-002,
   **   ~~~   ** Supply-to-demand interface deck 1 mass flow rate check value iteration history trace: 6.145182E-002,6.145182E-002,6.145182E-002,6.145182E-002,6.145182E-002,6.145182E-002,6.145182E-002,6.145182E-002,6.145182E-002,6.145182E-002,
   **   ~~~   ** Air System Named = CENTRAL SYSTEM did not converge for energy
   **   ~~~   ** Check values should be zero. Most Recent values listed first.
   **   ~~~   ** Demand-to-Supply interface energy check value iteration history trace: 1431.274221,1431.274221,1431.274221,1431.274222,1431.274222,1431.274222,1431.274222,1431.274222,1431.274222,1431.274222,
   **   ~~~   ** Supply-to-demand interface deck 1 energy check value iteration history trace: 728.383270,728.383270,728.383270,728.383271,728.383271,728.383271,728.383271,728.383271,728.383271,728.383271,
   ** Warning ** SimHVAC: Maximum iterations (20) exceeded for all HVAC loops, at ANNUAL, 10/09 11:45 - 12:00
   **   ~~~   ** The solution for one or more of the Air Loop HVAC systems did not appear to converge
   **   ~~~   ** Air System Named = CENTRAL SYSTEM did not converge for mass flow rate
   **   ~~~   ** Check values should be zero. Most Recent values listed first.
   **   ~~~   ** Demand-to-Supply interface mass flow rate check value iteration history trace: 6.338652E-002,6.338652E-002,6.338652E-002,6.338652E-002,6.338652E-002,6.338652E-002,6.338652E-002,6.338652E-002,6.338652E-002,6.338652E-002,
   **   ~~~   ** Supply-to-demand interface deck 1 mass flow rate check value iteration history trace: 6.338652E-002,6.338652E-002,6.338652E-002,6.338652E-002,6.338652E-002,6.338652E-002,6.338652E-002,6.338652E-002,6.338652E-002,6.338652E-002,
   **   ~~~   ** Air System Named = CENTRAL SYSTEM did not converge for energy
   **   ~~~   ** Check values should be zero. Most Recent values listed first.
   **   ~~~   ** Demand-to-Supply interface energy check value iteration history trace: 1500.320437,1500.320437,1500.320438,1500.320438,1500.320438,1500.320438,1500.320438,1500.320438,1500.320438,1500.320438,
   **   ~~~   ** Supply-to-demand interface deck 1 energy check value iteration history trace: 693.340689,693.340689,693.340689,693.340689,693.340689,693.340689,693.340689,693.340689,693.340689,693.340689,
   ** Warning ** SimHVAC: Maximum iterations (20) exceeded for all HVAC loops, at ANNUAL, 10/18 05:15 - 05:30
   **   ~~~   ** The solution for one or more of the Air Loop HVAC systems did not appear to converge
   **   ~~~   ** Air System Named = CENTRAL SYSTEM did not converge for mass flow rate
   **   ~~~   ** Check values should be zero. Most Recent values listed first.
   **   ~~~   ** Demand-to-Supply interface mass flow rate check value iteration history trace: 5.676407E-002,5.676407E-002,5.676407E-002,5.676407E-002,5.676407E-002,5.676407E-002,5.676407E-002,5.676407E-002,5.676407E-002,5.676407E-002,
   **   ~~~   ** Supply-to-demand interface deck 1 mass flow rate check value iteration history trace: 5.676407E-002,5.676407E-002,5.676407E-002,5.676407E-002,5.676407E-002,5.676407E-002,5.676407E-002,5.676407E-002,5.676407E-002,5.676407E-002,
   **   ~~~   ** Air System Named = CENTRAL SYSTEM did not converge for energy
   **   ~~~   ** Check values should be zero. Most Recent values listed first.
   **   ~~~   ** Demand-to-Supply interface energy check value iteration history trace: 1124.858310,1124.858310,1124.858310,1124.858310,1124.858310,1124.858310,1124.858310,1124.858310,1124.858310,1124.858310,
   **   ~~~   ** Supply-to-demand interface deck 1 energy check value iteration history trace: 1930.857720,1930.857720,1930.857720,1930.857719,1930.857719,1930.857719,1930.857719,1930.857719,1930.857719,1930.857719,
   ** Warning ** SimHVAC: Maximum iterations (20) exceeded for all HVAC loops, at ANNUAL, 10/24 12:00 - 12:08
   **   ~~~   ** The solution for one or more of the Air Loop HVAC systems did not appear to converge
   **   ~~~   ** Air System Named = CENTRAL SYSTEM did not converge for mass flow rate
   **   ~~~   ** Check values should be zero. Most Recent values listed first.
   **   ~~~   ** Demand-to-Supply interface mass flow rate check value iteration history trace: 6.409489E-002,6.409489E-002,6.409489E-002,6.409489E-002,6.409489E-002,6.409489E-002,6.409489E-002,6.409489E-002,6.409489E-002,6.409489E-002,
   **   ~~~   ** Supply-to-demand interface deck 1 mass flow rate check value iteration history trace: 6.409489E-002,6.409489E-002,6.409489E-002,6.409489E-002,6.409489E-002,6.409489E-002,6.409489E-002,6.409489E-002,6.409489E-002,6.409489E-002,
   **   ~~~   ** Air System Named = CENTRAL SYSTEM did not converge for energy
   **   ~~~   ** Check values should be zero. Most Recent values listed first.
   **   ~~~   ** Demand-to-Supply interface energy check value iteration history trace: 1271.028427,1271.028427,1271.028427,1271.028427,1271.028427,1271.028427,1271.028427,1271.028427,1271.028427,1271.028427,
   **   ~~~   ** Supply-to-demand interface deck 1 energy check value iteration history trace: 2218.947707,2218.947707,2218.947707,2218.947707,2218.947707,2218.947707,2218.947707,2218.947707,2218.947707,2218.947706,
   ** Warning ** SimHVAC: Maximum iterations (20) exceeded for all HVAC loops, at ANNUAL, 10/24 21:30 - 21:45
   **   ~~~   ** The solution for one or more of the Air Loop HVAC systems did not appear to converge
   **   ~~~   ** Air System Named = CENTRAL SYSTEM did not converge for mass flow rate
   **   ~~~   ** Check values should be zero. Most Recent values listed first.
   **   ~~~   ** Demand-to-Supply interface mass flow rate check value iteration history trace: 5.722460E-002,5.722460E-002,5.722460E-002,5.722460E-002,5.722460E-002,5.722460E-002,5.722460E-002,5.722460E-002,5.722460E-002,5.722460E-002,
   **   ~~~   ** Supply-to-demand interface deck 1 mass flow rate check value iteration history trace: 5.722460E-002,5.722460E-002,5.722460E-002,5.722460E-002,5.722460E-002,5.722460E-002,5.722460E-002,5.722460E-002,5.722460E-002,5.722460E-002,
   **   ~~~   ** Air System Named = CENTRAL SYSTEM did not converge for energy
   **   ~~~   ** Check values should be zero. Most Recent values listed first.
   **   ~~~   ** Demand-to-Supply interface energy check value iteration history trace: 1113.960864,1113.960864,1113.960864,1113.960864,1113.960864,1113.960864,1113.960864,1113.960864,1113.960864,1113.960864,
   **   ~~~   ** Supply-to-demand interface deck 1 energy check value iteration history trace: 1954.841228,1954.841228,1954.841228,1954.841227,1954.841227,1954.841227,1954.841227,1954.841227,1954.841227,1954.841227,
   ** Warning ** SimHVAC: Maximum iterations (20) exceeded for all HVAC loops, at ANNUAL, 11/17 20:23 - 20:30
   **   ~~~   ** The solution for one or more of the Air Loop HVAC systems did not appear to converge
   **   ~~~   ** Air System Named = CENTRAL SYSTEM did not converge for mass flow rate
   **   ~~~   ** Check values should be zero. Most Recent values listed first.
   **   ~~~   ** Demand-to-Supply interface mass flow rate check value iteration history trace: 9.676704E-002,9.676704E-002,9.676704E-002,9.676704E-002,9.676704E-002,9.676704E-002,9.676704E-002,9.676704E-002,9.676704E-002,9.676704E-002,
   **   ~~~   ** Supply-to-demand interface deck 1 mass flow rate check value iteration history trace: 9.676704E-002,9.676704E-002,9.676704E-002,9.676704E-002,9.676704E-002,9.676704E-002,9.676704E-002,9.676704E-002,9.676704E-002,9.676704E-002,
   **   ~~~   ** Air System Named = CENTRAL SYSTEM did not converge for energy
   **   ~~~   ** Check values should be zero. Most Recent values listed first.
   **   ~~~   ** Demand-to-Supply interface energy check value iteration history trace: 1905.610832,1905.610832,1905.610832,1905.610832,1905.610832,1905.610832,1905.610832,1905.610831,1905.610831,1905.610831,
   **   ~~~   ** Supply-to-demand interface deck 1 energy check value iteration history trace: 2911.950239,2911.950239,2911.950239,2911.950239,2911.950239,2911.950238,2911.950238,2911.950238,2911.950238,2911.950238,
   ** Warning ** SimHVAC: Maximum iterations (20) exceeded for all HVAC loops, at ANNUAL, 11/19 11:06 - 11:09
   **   ~~~   ** The solution for one or more of the Air Loop HVAC systems did not appear to converge
   **   ~~~   ** Air System Named = CENTRAL SYSTEM did not converge for mass flow rate
   **   ~~~   ** Check values should be zero. Most Recent values listed first.
   **   ~~~   ** Demand-to-Supply interface mass flow rate check value iteration history trace: 9.309203E-002,9.309203E-002,9.309203E-002,9.309203E-002,9.309203E-002,9.309203E-002,9.309203E-002,9.309203E-002,9.309203E-002,9.309203E-002,
   **   ~~~   ** Supply-to-demand interface deck 1 mass flow rate check value iteration history trace: 9.309203E-002,9.309203E-002,9.309203E-002,9.309203E-002,9.309203E-002,9.309203E-002,9.309203E-002,9.309203E-002,9.309203E-002,9.309203E-002,
   **   ~~~   ** Air System Named = CENTRAL SYSTEM did not converge for energy
   **   ~~~   ** Check values should be zero. Most Recent values listed first.
   **   ~~~   ** Demand-to-Supply interface energy check value iteration history trace: 1840.513323,1840.513323,1840.513323,1840.513323,1840.513323,1840.513323,1840.513323,1840.513323,1840.513322,1840.513322,
   **   ~~~   ** Supply-to-demand interface deck 1 energy check value iteration history trace: 2840.931596,2840.931596,2840.931595,2840.931595,2840.931595,2840.931595,2840.931595,2840.931594,2840.931594,2840.931594,
   ** Warning ** SimHVAC: Maximum iterations (20) exceeded for all HVAC loops, at ANNUAL, 11/21 10:20 - 10:25
   **   ~~~   ** The solution for one or more of the Air Loop HVAC systems did not appear to converge
   **   ~~~   ** Air System Named = CENTRAL SYSTEM did not converge for mass flow rate
   **   ~~~   ** Check values should be zero. Most Recent values listed first.
   **   ~~~   ** Demand-to-Supply interface mass flow rate check value iteration history trace: 7.421527E-002,7.421527E-002,7.421527E-002,7.421527E-002,7.421527E-002,7.421527E-002,7.421527E-002,7.421527E-002,7.421527E-002,7.421527E-002,
   **   ~~~   ** Supply-to-demand interface deck 1 mass flow rate check value iteration history trace: 7.421527E-002,7.421527E-002,7.421527E-002,7.421527E-002,7.421527E-002,7.421527E-002,7.421527E-002,7.421527E-002,7.421527E-002,7.421527E-002,
   **   ~~~   ** Air System Named = CENTRAL SYSTEM did not converge for energy
   **   ~~~   ** Check values should be zero. Most Recent values listed first.
   **   ~~~   ** Demand-to-Supply interface energy check value iteration history trace: 1470.966377,1470.966377,1470.966377,1470.966377,1470.966377,1470.966377,1470.966377,1470.966377,1470.966377,1470.966377,
   **   ~~~   ** Supply-to-demand interface deck 1 energy check value iteration history trace: 2658.441807,2658.441807,2658.441807,2658.441807,2658.441807,2658.441807,2658.441807,2658.441807,2658.441807,2658.441807,
   **   ~~~   ** Node named ZONE INLET NODE shows oscillating temperatures across iterations with a repeated value of 35.648011
   **   ~~~   ** Node named ZONE INLET NODE temperature [C] iteration history trace (most recent first): 35.648011,35.648011,35.648011,35.648010,35.648010,35.648010,35.648010,35.648009,35.648009,35.648009,
   ** Warning ** WetBulb not converged after 101 iterations(PsyTwbFnTdbWPb)
   **   ~~~   **  Routine=Unknown, Environment=ANNUAL, at Simulation time=12/14 02:30 - 02:45
   **   ~~~   **  Input Temperature = 2.80
   **   ~~~   **  Input Humidity Ratio= 2.747995E-003
   **   ~~~   **  Input Pressure = 98543.50
   **   ~~~   **  Resultant Temperature= 3.00E-002
   ************* Simulation Error Summary *************
   ** Warning ** The following Report Variables were requested but not generated -- check.rdd file
   **   ~~~   ** Either the IDF did not contain these elements, the variable name is misspelled,
   **   ~~~   ** or the requested variable is an advanced output which requires Output : Diagnostics, DisplayAdvancedReportVariables;
   ************* Key=*, VarName=BASEBOARD TOTAL HEATING ENERGY, Frequency=
   ************* Key=*, VarName=WATER HEATER NATURALGAS ENERGY, Frequency=
   ************* Key=*, VarName=COOLING COIL TOTAL HEATING ENERGY, Frequency=
   ************* There are 34 unused schedules in input.
   ************* There are 388 unused week schedules in input.
   ************* There are 396 unused day schedules in input.
   ************* Use Output:Diagnostics,DisplayUnusedSchedules; to see them.
   *************
   ************* ===== Recurring Error Summary =====
   ************* The following recurring error messages occurred.
   *************
   *************  ** Warning ** "TOTAL HOT WATER LOAD" - Target water temperature should be less than or equal to the hot water temperature error continues...
   *************  **   ~~~   **   This error occurred 161807 total times;
   *************  **   ~~~   **   during Warmup 0 times;
   *************  **   ~~~   **   during Sizing 0 times.
   *************  **   ~~~   **   Max=12.904923  Min=1.321698E-003
   *************
   *************  ** Warning ** SimHVAC: Exceeding Maximum iterations for all HVAC loops, during ANNUAL continues
   *************  **   ~~~   **   This error occurred 6 total times;
   *************  **   ~~~   **   during Warmup 0 times;
   *************  **   ~~~   **   during Sizing 0 times.
   *************
   *************  ** Warning ** WetBulb not converged after max iterations(PsyTwbFnTdbWPb)
   *************  **   ~~~   **   This error occurred 1 total times;
   *************  **   ~~~   **   during Warmup 0 times;
   *************  **   ~~~   **   during Sizing 0 times.
   *************
   *************
   ************* ===== Final Error Summary =====
   ************* The following error categories occurred.  Consider correcting or noting.
   ************* Nominally Unused Constructions
   ************* ..The nominally unused constructions warning is provided to alert you to potential conditions that can cause
   ************* ..extra time during simulation. Each construction is calculated by the algorithm indicated in the HeatBalanceAlgorithm
   ************* ..object. You may remove the constructions indicated (when you use the DisplayExtraWarnings option).
   *************
   ************* EnergyPlus Warmup Error Summary. During Warmup: 1 Warning; 0 Severe Errors.
   ************* EnergyPlus Sizing Error Summary. During Sizing: 4 Warning; 0 Severe Errors.
   ************* EnergyPlus Completed Successfully-- 161845 Warning; 0 Severe Errors; Elapsed Time=00hr 01min 36.35sec
