Program Version,EnergyPlus, Version 22.2.0-c249759bad, YMD=2023.09.01 20:10,
   ************* Beginning Zone Sizing Calculations
   ** Warning ** ProcessScheduleInput: Schedule:Constant="ALWAYS ON DISCRETE", Schedule Type Limits Name="ONOFF" not found -- will not be validated
   ** Warning ** Foundation:Kiva="KIVA FOUNDATION", no Interior Horizontal Insulation Material Name defined
   **   ~~~   ** Interior Horizontal Insulation Depth will not be used.
   ** Warning ** CheckUsedConstructions: There are 15 nominally unused constructions in input.
   **   ~~~   ** Each Unused construction is shown.
   ************* Construction=INTERIOR FLOOR
   ************* Construction=INTERIOR WINDOW
   ************* Construction=EXTERIOR DOOR
   ************* Construction=INTERIOR DOOR
   ************* Construction=GABLE CONSTRUCTION
   ************* Construction=CRAWL_FLOOR
   ************* Construction=INSULATED PIPE
   ************* Construction=PLAIN PIPE
   ************* Construction=TDD PIPE
   ************* Construction=TDD DOME
   ************* Construction=TDD DIFFUSER
   ************* Construction=CRAWL WALL
   ************* Construction=CEILING-FLOOR-LAYER
   ************* Construction=SLAB CONSTRUCTION W FULL R10 INSULATION
   ************* Construction=SLAB CONSTRUCTION W FULL R5 INSULATION
   ** Warning ** GetDXCoils: Coil:Heating:DX:SingleSpeed="DX_HEATING_COIL" curve values
   **   ~~~   ** ... Defrost Energy Input Ratio Function of Temperature Curve Name = DEFROSTEIR output is not equal to 1.0 (+ or - 10%) at rated conditions.
   **   ~~~   ** ... Curve output at rated conditions = 0.152
   ************* Beginning System Sizing Calculations
   ************* Beginning Plant Sizing Calculations
   ** Warning ** Coil:WaterHeating:AirToWaterHeatPump:Wrapped "HEAT PUMP WATER HEATER EVAPORATOR": Rated air volume flow rate per watt of rated total water heating capacity is out of range
   **   ~~~   ** Min Rated Vol Flow Per Watt=[4.027E-005], Rated Vol Flow Per Watt=[1.510E-004], Max Rated Vol Flow Per Watt=[8.056E-005]. See Input-Output Reference Manual for valid range.
   ************* SizeFan: : Potential issue with equipment sizing for Fan:OnOff HEAT PUMP WATER HEATER FAN
   **   ~~~   ** User-Specified Maximum Flow Rate [m3/s] = 0.22653
   **   ~~~   ** differs from Design Size Maximum Flow Rate [m3/s] = 7.55250E-002
   **   ~~~   ** This may, or may not, indicate mismatched component sizes.
   **   ~~~   ** Verify that the value entered is intended and is consistent with other components.
   ** Warning ** Water heater = WATER HEATER TANK:  Recovery Efficiency and Energy Factor could not be calculated during the test for standard ratings
   **   ~~~   ** Setpoint was never recovered and/or heater never turned on
   ** Warning ** Check input. Pump nominal power or motor efficiency is set to 0, for pump=MAINS PRESSURE
   ** Warning ** Output:Meter: invalid Key Name="ELECTRIC_RANGE:INTERIOREQUIPMENT:ELECTRICITY" - not found.
   ** Warning ** Output:Meter: invalid Key Name="ELECTRIC_DRYER:INTERIOREQUIPMENT:ELECTRICITY" - not found.
   ** Warning ** Output:Meter: invalid Key Name="HEATRECOVERY:ELECTRICITY" - not found.
   ** Warning ** Output:Meter: invalid Key Name="HEATING:NATURALGAS" - not found.
   ** Warning ** Output:Meter: invalid Key Name="WATERSYSTEMS:NATURALGAS" - not found.
   ** Warning ** Output:Meter: invalid Key Name="PROPANE:FACILITY" - not found.
   ** Warning ** Output:Meter: invalid Key Name="HEATING:PROPANE" - not found.
   ************* Testing Individual Branch Integrity
   ************* All Branches passed integrity testing
   ************* Testing Individual Supply Air Path Integrity
   ************* All Supply Air Paths passed integrity testing
   ************* Testing Individual Return Air Path Integrity
   ************* All Return Air Paths passed integrity testing
   ************* No node connection errors were found.
   ************* Beginning Simulation
   ** Warning ** AirflowNetwork::Solver::validate_distribution: Heat pump water heater is simulated along with an AirflowNetwork but is not included in the AirflowNetwork.
   ** Warning ** CalcEquipmentFlowRates: "TOTAL HOT WATER LOAD" - Target water temperature is greater than the hot water temperature by (4.09 C)
   **   ~~~   **  Environment=EXTREME_WINTER, at Simulation time=01/13 07:00 - 07:15
   **   ~~~   ** ...target water temperature     = 53.33 C
   **   ~~~   ** ...hot water temperature        = 49.25 C
   **   ~~~   ** ...Target water temperature should be less than or equal to the hot water temperature. Verify temperature setpoints and schedules.
   ** Warning ** SimHVAC: Maximum iterations (20) exceeded for all HVAC loops, at ANNUAL, 01/07 09:21 - 09:24
   **   ~~~   ** The solution for one or more of the Air Loop HVAC systems did not appear to converge
   **   ~~~   ** Air System Named = CENTRAL SYSTEM did not converge for mass flow rate
   **   ~~~   ** Check values should be zero. Most Recent values listed first.
   **   ~~~   ** Demand-to-Supply interface mass flow rate check value iteration history trace: 6.454181E-002,6.454181E-002,6.454181E-002,6.454181E-002,6.454181E-002,6.454181E-002,6.454181E-002,6.454181E-002,6.454181E-002,6.454181E-002,
   **   ~~~   ** Supply-to-demand interface deck 1 mass flow rate check value iteration history trace: 6.454181E-002,6.454181E-002,6.454181E-002,6.454181E-002,6.454181E-002,6.454181E-002,6.454181E-002,6.454181E-002,6.454181E-002,6.454181E-002,
   **   ~~~   ** Air System Named = CENTRAL SYSTEM did not converge for energy
   **   ~~~   ** Check values should be zero. Most Recent values listed first.
   **   ~~~   ** Demand-to-Supply interface energy check value iteration history trace: 1276.380637,1276.380637,1276.380637,1276.380637,1276.380637,1276.380637,1276.380637,1276.380637,1276.380637,1276.380637,
   **   ~~~   ** Supply-to-demand interface deck 1 energy check value iteration history trace: 2218.353439,2218.353439,2218.353439,2218.353439,2218.353439,2218.353439,2218.353438,2218.353438,2218.353438,2218.353438,
   ** Warning ** SimHVAC: Maximum iterations (20) exceeded for all HVAC loops, at ANNUAL, 01/07 09:51 - 09:54
   **   ~~~   ** The solution for one or more of the Air Loop HVAC systems did not appear to converge
   **   ~~~   ** Air System Named = CENTRAL SYSTEM did not converge for mass flow rate
   **   ~~~   ** Check values should be zero. Most Recent values listed first.
   **   ~~~   ** Demand-to-Supply interface mass flow rate check value iteration history trace: 5.908685E-002,5.908685E-002,5.908685E-002,5.908685E-002,5.908685E-002,5.908685E-002,5.908685E-002,5.908685E-002,5.908685E-002,5.908685E-002,
   **   ~~~   ** Supply-to-demand interface deck 1 mass flow rate check value iteration history trace: 5.908685E-002,5.908685E-002,5.908685E-002,5.908685E-002,5.908685E-002,5.908685E-002,5.908685E-002,5.908685E-002,5.908685E-002,5.908685E-002,
   **   ~~~   ** Air System Named = CENTRAL SYSTEM did not converge for energy
   **   ~~~   ** Check values should be zero. Most Recent values listed first.
   **   ~~~   ** Demand-to-Supply interface energy check value iteration history trace: 1164.078895,1164.078895,1164.078895,1164.078895,1164.078895,1164.078895,1164.078895,1164.078894,1164.078894,1164.078894,
   **   ~~~   ** Supply-to-demand interface deck 1 energy check value iteration history trace: 2058.455424,2058.455424,2058.455424,2058.455424,2058.455423,2058.455423,2058.455423,2058.455423,2058.455423,2058.455423,
   ** Warning ** SimHVAC: Maximum iterations (20) exceeded for all HVAC loops, at ANNUAL, 01/16 10:15 - 10:30
   **   ~~~   ** The solution for one or more of the Air Loop HVAC systems did not appear to converge
   **   ~~~   ** Air System Named = CENTRAL SYSTEM did not converge for mass flow rate
   **   ~~~   ** Check values should be zero. Most Recent values listed first.
   **   ~~~   ** Demand-to-Supply interface mass flow rate check value iteration history trace: 7.329473E-002,7.329473E-002,7.329473E-002,7.329473E-002,7.329473E-002,7.329473E-002,7.329473E-002,7.329473E-002,7.329473E-002,7.329473E-002,
   **   ~~~   ** Supply-to-demand interface deck 1 mass flow rate check value iteration history trace: 7.329473E-002,7.329473E-002,7.329473E-002,7.329473E-002,7.329473E-002,7.329473E-002,7.329473E-002,7.329473E-002,7.329473E-002,7.329473E-002,
   **   ~~~   ** Air System Named = CENTRAL SYSTEM did not converge for energy
   **   ~~~   ** Check values should be zero. Most Recent values listed first.
   **   ~~~   ** Demand-to-Supply interface energy check value iteration history trace: 1449.579609,1449.579609,1449.579609,1449.579609,1449.579609,1449.579609,1449.579609,1449.579609,1449.579609,1449.579609,
   **   ~~~   ** Supply-to-demand interface deck 1 energy check value iteration history trace: 2460.259315,2460.259315,2460.259314,2460.259314,2460.259314,2460.259314,2460.259314,2460.259314,2460.259314,2460.259314,
   ** Warning ** SimHVAC: Maximum iterations (20) exceeded for all HVAC loops, at ANNUAL, 03/07 09:06 - 09:08
   **   ~~~   ** The solution for one or more of the Air Loop HVAC systems did not appear to converge
   **   ~~~   ** Air System Named = CENTRAL SYSTEM did not converge for mass flow rate
   **   ~~~   ** Check values should be zero. Most Recent values listed first.
   **   ~~~   ** Demand-to-Supply interface mass flow rate check value iteration history trace: 4.007757E-002,4.007757E-002,4.007757E-002,4.007757E-002,4.007757E-002,4.007757E-002,4.007757E-002,4.007757E-002,4.007757E-002,4.007757E-002,
   **   ~~~   ** Supply-to-demand interface deck 1 mass flow rate check value iteration history trace: 4.007757E-002,4.007757E-002,4.007757E-002,4.007757E-002,4.007757E-002,4.007757E-002,4.007757E-002,4.007757E-002,4.007757E-002,4.007757E-002,
   **   ~~~   ** Air System Named = CENTRAL SYSTEM did not converge for energy
   **   ~~~   ** Check values should be zero. Most Recent values listed first.
   **   ~~~   ** Demand-to-Supply interface energy check value iteration history trace: 939.932120,939.932120,939.932120,939.932120,939.932120,939.932120,939.932120,939.932121,939.932121,939.932121,
   **   ~~~   ** Supply-to-demand interface deck 1 energy check value iteration history trace: 519.409026,519.409026,519.409026,519.409026,519.409026,519.409027,519.409027,519.409027,519.409027,519.409027,
   ** Warning ** SimHVAC: Maximum iterations (20) exceeded for all HVAC loops, at ANNUAL, 03/08 09:15 - 09:30
   **   ~~~   ** The solution for one or more of the Air Loop HVAC systems did not appear to converge
   **   ~~~   ** Air System Named = CENTRAL SYSTEM did not converge for mass flow rate
   **   ~~~   ** Check values should be zero. Most Recent values listed first.
   **   ~~~   ** Demand-to-Supply interface mass flow rate check value iteration history trace: 4.408050E-002,4.408050E-002,4.408050E-002,4.408050E-002,4.408050E-002,4.408050E-002,4.408050E-002,4.408050E-002,4.408050E-002,4.408050E-002,
   **   ~~~   ** Supply-to-demand interface deck 1 mass flow rate check value iteration history trace: 4.408050E-002,4.408050E-002,4.408050E-002,4.408050E-002,4.408050E-002,4.408050E-002,4.408050E-002,4.408050E-002,4.408050E-002,4.408050E-002,
   **   ~~~   ** Air System Named = CENTRAL SYSTEM did not converge for energy
   **   ~~~   ** Check values should be zero. Most Recent values listed first.
   **   ~~~   ** Demand-to-Supply interface energy check value iteration history trace: 1041.443922,1041.443922,1041.443922,1041.443923,1041.443923,1041.443923,1041.443923,1041.443923,1041.443923,1041.443923,
   **   ~~~   ** Supply-to-demand interface deck 1 energy check value iteration history trace: 623.257297,623.257297,623.257297,623.257297,623.257297,623.257297,623.257297,623.257297,623.257297,623.257297,
   ** Warning ** SimHVAC: Maximum iterations (20) exceeded for all HVAC loops, at ANNUAL, 03/09 10:45 - 11:00
   **   ~~~   ** The solution for one or more of the Air Loop HVAC systems did not appear to converge
   **   ~~~   ** Air System Named = CENTRAL SYSTEM did not converge for mass flow rate
   **   ~~~   ** Check values should be zero. Most Recent values listed first.
   **   ~~~   ** Demand-to-Supply interface mass flow rate check value iteration history trace: 7.720722E-002,7.720722E-002,7.720722E-002,7.720722E-002,7.720722E-002,7.720722E-002,7.720722E-002,7.720722E-002,7.720722E-002,7.720722E-002,
   **   ~~~   ** Supply-to-demand interface deck 1 mass flow rate check value iteration history trace: 7.720722E-002,7.720722E-002,7.720722E-002,7.720722E-002,7.720722E-002,7.720722E-002,7.720722E-002,7.720722E-002,7.720722E-002,7.720722E-002,
   **   ~~~   ** Air System Named = CENTRAL SYSTEM did not converge for energy
   **   ~~~   ** Check values should be zero. Most Recent values listed first.
   **   ~~~   ** Demand-to-Supply interface energy check value iteration history trace: 1830.125906,1830.125907,1830.125907,1830.125907,1830.125907,1830.125907,1830.125907,1830.125907,1830.125908,1830.125908,
   **   ~~~   ** Supply-to-demand interface deck 1 energy check value iteration history trace: 1172.824112,1172.824112,1172.824112,1172.824112,1172.824112,1172.824112,1172.824112,1172.824112,1172.824112,1172.824112,
   ** Warning ** SimHVAC: Maximum iterations (20) exceeded for all HVAC loops, at ANNUAL, 03/10 10:45 - 11:00
   **   ~~~   ** The solution for one or more of the Air Loop HVAC systems did not appear to converge
   **   ~~~   ** Air System Named = CENTRAL SYSTEM did not converge for mass flow rate
   **   ~~~   ** Check values should be zero. Most Recent values listed first.
   **   ~~~   ** Demand-to-Supply interface mass flow rate check value iteration history trace: 5.666242E-002,5.666242E-002,5.666242E-002,5.666242E-002,5.666242E-002,5.666242E-002,5.666242E-002,5.666242E-002,5.666242E-002,5.666242E-002,
   **   ~~~   ** Supply-to-demand interface deck 1 mass flow rate check value iteration history trace: 5.666242E-002,5.666242E-002,5.666242E-002,5.666242E-002,5.666242E-002,5.666242E-002,5.666242E-002,5.666242E-002,5.666242E-002,5.666242E-002,
   **   ~~~   ** Air System Named = CENTRAL SYSTEM did not converge for energy
   **   ~~~   ** Check values should be zero. Most Recent values listed first.
   **   ~~~   ** Demand-to-Supply interface energy check value iteration history trace: 1340.160118,1340.160119,1340.160119,1340.160119,1340.160119,1340.160119,1340.160119,1340.160119,1340.160119,1340.160119,
   **   ~~~   ** Supply-to-demand interface deck 1 energy check value iteration history trace: 774.995449,774.995450,774.995450,774.995450,774.995450,774.995450,774.995450,774.995450,774.995450,774.995450,
   ** Warning ** SimHVAC: Maximum iterations (20) exceeded for all HVAC loops, at ANNUAL, 03/11 06:00 - 06:15
   **   ~~~   ** The solution for one or more of the Air Loop HVAC systems did not appear to converge
   **   ~~~   ** Air System Named = CENTRAL SYSTEM did not converge for mass flow rate
   **   ~~~   ** Check values should be zero. Most Recent values listed first.
   **   ~~~   ** Demand-to-Supply interface mass flow rate check value iteration history trace: 5.031872E-002,5.031872E-002,5.031872E-002,5.031872E-002,5.031872E-002,5.031872E-002,5.031872E-002,5.031872E-002,5.031872E-002,5.031872E-002,
   **   ~~~   ** Supply-to-demand interface deck 1 mass flow rate check value iteration history trace: 5.031872E-002,5.031872E-002,5.031872E-002,5.031872E-002,5.031872E-002,5.031872E-002,5.031872E-002,5.031872E-002,5.031872E-002,5.031872E-002,
   **   ~~~   ** Air System Named = CENTRAL SYSTEM did not converge for energy
   **   ~~~   ** Check values should be zero. Most Recent values listed first.
   **   ~~~   ** Demand-to-Supply interface energy check value iteration history trace: 1177.103174,1177.103174,1177.103174,1177.103174,1177.103174,1177.103174,1177.103175,1177.103175,1177.103175,1177.103175,
   **   ~~~   ** Supply-to-demand interface deck 1 energy check value iteration history trace: 745.007188,745.007188,745.007189,745.007189,745.007189,745.007189,745.007189,745.007189,745.007189,745.007189,
   ** Warning ** SimHVAC: Maximum iterations (20) exceeded for all HVAC loops, at ANNUAL, 03/11 11:00 - 11:15
   **   ~~~   ** The solution for one or more of the Air Loop HVAC systems did not appear to converge
   **   ~~~   ** Air System Named = CENTRAL SYSTEM did not converge for mass flow rate
   **   ~~~   ** Check values should be zero. Most Recent values listed first.
   **   ~~~   ** Demand-to-Supply interface mass flow rate check value iteration history trace: 5.500072E-002,5.500072E-002,5.500072E-002,5.500072E-002,5.500072E-002,5.500072E-002,5.500072E-002,5.500072E-002,5.500072E-002,5.500072E-002,
   **   ~~~   ** Supply-to-demand interface deck 1 mass flow rate check value iteration history trace: 5.500072E-002,5.500072E-002,5.500072E-002,5.500072E-002,5.500072E-002,5.500072E-002,5.500072E-002,5.500072E-002,5.500072E-002,5.500072E-002,
   **   ~~~   ** Air System Named = CENTRAL SYSTEM did not converge for energy
   **   ~~~   ** Check values should be zero. Most Recent values listed first.
   **   ~~~   ** Demand-to-Supply interface energy check value iteration history trace: 1278.354852,1278.354853,1278.354853,1278.354853,1278.354853,1278.354853,1278.354853,1278.354853,1278.354853,1278.354853,
   **   ~~~   ** Supply-to-demand interface deck 1 energy check value iteration history trace: 768.386812,768.386812,768.386812,768.386812,768.386812,768.386812,768.386812,768.386813,768.386813,768.386813,
   ** Warning ** SimHVAC: Maximum iterations (20) exceeded for all HVAC loops, at ANNUAL, 03/12 09:15 - 09:30
   **   ~~~   ** The solution for one or more of the Air Loop HVAC systems did not appear to converge
   **   ~~~   ** Air System Named = CENTRAL SYSTEM did not converge for energy
   **   ~~~   ** Check values should be zero. Most Recent values listed first.
   **   ~~~   ** Demand-to-Supply interface energy check value iteration history trace: 99.713384,99.713384,99.713384,99.713384,99.713384,99.713384,99.713384,99.713384,99.713384,99.713384,
   **   ~~~   ** Supply-to-demand interface deck 1 energy check value iteration history trace: 55.419215,55.419215,55.419215,55.419215,55.419215,55.419215,55.419215,55.419215,55.419215,55.419215,
   ** Warning ** SimHVAC: Maximum iterations (20) exceeded for all HVAC loops, at ANNUAL, 03/12 22:30 - 22:45
   **   ~~~   ** The solution for one or more of the Air Loop HVAC systems did not appear to converge
   **   ~~~   ** Air System Named = CENTRAL SYSTEM did not converge for mass flow rate
   **   ~~~   ** Check values should be zero. Most Recent values listed first.
   **   ~~~   ** Demand-to-Supply interface mass flow rate check value iteration history trace: 1.399240E-002,1.399240E-002,1.399240E-002,1.399240E-002,1.399240E-002,1.399240E-002,1.399240E-002,1.399240E-002,1.399240E-002,1.399240E-002,
   **   ~~~   ** Supply-to-demand interface deck 1 mass flow rate check value iteration history trace: 1.399240E-002,1.399240E-002,1.399240E-002,1.399240E-002,1.399240E-002,1.399240E-002,1.399240E-002,1.399240E-002,1.399240E-002,1.399240E-002,
   **   ~~~   ** Air System Named = CENTRAL SYSTEM did not converge for energy
   **   ~~~   ** Check values should be zero. Most Recent values listed first.
   **   ~~~   ** Demand-to-Supply interface energy check value iteration history trace: 341.320089,341.320089,341.320089,341.320089,341.320089,341.320089,341.320089,341.320089,341.320089,341.320089,
   **   ~~~   ** Supply-to-demand interface deck 1 energy check value iteration history trace: 164.994222,164.994222,164.994222,164.994222,164.994222,164.994222,164.994222,164.994222,164.994222,164.994222,
   ** Warning ** SimHVAC: Maximum iterations (20) exceeded for all HVAC loops, at ANNUAL, 03/13 23:00 - 23:15
   **   ~~~   ** The solution for one or more of the Air Loop HVAC systems did not appear to converge
   **   ~~~   ** Air System Named = CENTRAL SYSTEM did not converge for mass flow rate
   **   ~~~   ** Check values should be zero. Most Recent values listed first.
   **   ~~~   ** Demand-to-Supply interface mass flow rate check value iteration history trace: 7.260997E-002,7.260997E-002,7.260997E-002,7.260997E-002,7.260997E-002,7.260997E-002,7.260997E-002,7.260997E-002,7.260997E-002,7.260997E-002,
   **   ~~~   ** Supply-to-demand interface deck 1 mass flow rate check value iteration history trace: 7.260997E-002,7.260997E-002,7.260997E-002,7.260997E-002,7.260997E-002,7.260997E-002,7.260997E-002,7.260997E-002,7.260997E-002,7.260997E-002,
   **   ~~~   ** Air System Named = CENTRAL SYSTEM did not converge for energy
   **   ~~~   ** Check values should be zero. Most Recent values listed first.
   **   ~~~   ** Demand-to-Supply interface energy check value iteration history trace: 1806.039309,1806.039310,1806.039310,1806.039310,1806.039311,1806.039311,1806.039311,1806.039312,1806.039312,1806.039312,
   **   ~~~   ** Supply-to-demand interface deck 1 energy check value iteration history trace: 862.308009,862.308009,862.308009,862.308009,862.308009,862.308010,862.308010,862.308010,862.308010,862.308010,
   ** Warning ** SimHVAC: Maximum iterations (20) exceeded for all HVAC loops, at ANNUAL, 12/16 01:23 - 01:30
   **   ~~~   ** The solution for one or more of the Air Loop HVAC systems did not appear to converge
   **   ~~~   ** Air System Named = CENTRAL SYSTEM did not converge for mass flow rate
   **   ~~~   ** Check values should be zero. Most Recent values listed first.
   **   ~~~   ** Demand-to-Supply interface mass flow rate check value iteration history trace: 2.498273E-002,2.498273E-002,2.498273E-002,2.498273E-002,2.498273E-002,2.498273E-002,2.498273E-002,2.498273E-002,2.498273E-002,2.498273E-002,
   **   ~~~   ** Supply-to-demand interface deck 1 mass flow rate check value iteration history trace: 2.498273E-002,2.498273E-002,2.498273E-002,2.498273E-002,2.498273E-002,2.498273E-002,2.498273E-002,2.498273E-002,2.498273E-002,2.498273E-002,
   **   ~~~   ** Air System Named = CENTRAL SYSTEM did not converge for energy
   **   ~~~   ** Check values should be zero. Most Recent values listed first.
   **   ~~~   ** Demand-to-Supply interface energy check value iteration history trace: 618.335982,618.335982,618.335982,618.335982,618.335983,618.335983,618.335983,618.335983,618.335983,618.335983,
   **   ~~~   ** Supply-to-demand interface deck 1 energy check value iteration history trace: 328.504235,328.504235,328.504235,328.504235,328.504235,328.504236,328.504236,328.504236,328.504236,328.504236,
   ** Warning ** SimHVAC: Maximum iterations (20) exceeded for all HVAC loops, at ANNUAL, 12/17 12:10 - 12:15
   **   ~~~   ** The solution for one or more of the Air Loop HVAC systems did not appear to converge
   **   ~~~   ** Air System Named = CENTRAL SYSTEM did not converge for mass flow rate
   **   ~~~   ** Check values should be zero. Most Recent values listed first.
   **   ~~~   ** Demand-to-Supply interface mass flow rate check value iteration history trace: 0.142127,0.142127,0.142127,0.142127,0.142127,0.142127,0.142127,0.142127,0.142127,0.142127,
   **   ~~~   ** Supply-to-demand interface deck 1 mass flow rate check value iteration history trace: 0.142127,0.142127,0.142127,0.142127,0.142127,0.142127,0.142127,0.142127,0.142127,0.142127,
   **   ~~~   ** Air System Named = CENTRAL SYSTEM did not converge for energy
   **   ~~~   ** Check values should be zero. Most Recent values listed first.
   **   ~~~   ** Demand-to-Supply interface energy check value iteration history trace: 3352.712243,3352.712243,3352.712243,3352.712243,3352.712244,3352.712244,3352.712244,3352.712244,3352.712245,3352.712245,
   **   ~~~   ** Supply-to-demand interface deck 1 energy check value iteration history trace: 1527.461885,1527.461885,1527.461885,1527.461885,1527.461885,1527.461885,1527.461885,1527.461886,1527.461886,1527.461886,
   ************* Simulation Error Summary *************
   ** Warning ** The following Report Variables were requested but not generated -- check.rdd file
   **   ~~~   ** Either the IDF did not contain these elements, the variable name is misspelled,
   **   ~~~   ** or the requested variable is an advanced output which requires Output : Diagnostics, DisplayAdvancedReportVariables;
   ************* Key=*, VarName=BASEBOARD TOTAL HEATING ENERGY, Frequency=
   ************* Key=*, VarName=WATER HEATER NATURALGAS ENERGY, Frequency=
   ************* Key=*, VarName=COOLING COIL TOTAL HEATING ENERGY, Frequency=
   ************* There are 34 unused schedules in input.
   ************* There are 388 unused week schedules in input.
   ************* There are 396 unused day schedules in input.
   ************* Use Output:Diagnostics,DisplayUnusedSchedules; to see them.
   *************
   ************* ===== Recurring Error Summary =====
   ************* The following recurring error messages occurred.
   *************
   *************  ** Warning ** "TOTAL HOT WATER LOAD" - Target water temperature should be less than or equal to the hot water temperature error continues...
   *************  **   ~~~   **   This error occurred 172881 total times;
   *************  **   ~~~   **   during Warmup 0 times;
   *************  **   ~~~   **   during Sizing 0 times.
   *************  **   ~~~   **   Max=11.522631  Min=1.086232E-005
   *************
   *************  ** Warning ** SimHVAC: Exceeding Maximum iterations for all HVAC loops, during ANNUAL continues
   *************  **   ~~~   **   This error occurred 2 total times;
   *************  **   ~~~   **   during Warmup 0 times;
   *************  **   ~~~   **   during Sizing 0 times.
   *************
   *************
   ************* ===== Final Error Summary =====
   ************* The following error categories occurred.  Consider correcting or noting.
   ************* Nominally Unused Constructions
   ************* ..The nominally unused constructions warning is provided to alert you to potential conditions that can cause
   ************* ..extra time during simulation. Each construction is calculated by the algorithm indicated in the HeatBalanceAlgorithm
   ************* ..object. You may remove the constructions indicated (when you use the DisplayExtraWarnings option).
   *************
   ************* EnergyPlus Warmup Error Summary. During Warmup: 1 Warning; 0 Severe Errors.
   ************* EnergyPlus Sizing Error Summary. During Sizing: 4 Warning; 0 Severe Errors.
   ************* EnergyPlus Completed Successfully-- 172914 Warning; 0 Severe Errors; Elapsed Time=00hr 01min 41.28sec
