Program Version,EnergyPlus, Version 22.2.0-c249759bad, YMD=2023.09.01 19:45,
   ************* Beginning Zone Sizing Calculations
   ** Warning ** ProcessScheduleInput: Schedule:Constant="ALWAYS ON DISCRETE", Schedule Type Limits Name="ONOFF" not found -- will not be validated
   ** Warning ** Foundation:Kiva="KIVA FOUNDATION", no Interior Horizontal Insulation Material Name defined
   **   ~~~   ** Interior Horizontal Insulation Depth will not be used.
   ** Warning ** CheckUsedConstructions: There are 15 nominally unused constructions in input.
   **   ~~~   ** Each Unused construction is shown.
   ************* Construction=INTERIOR FLOOR
   ************* Construction=INTERIOR WINDOW
   ************* Construction=EXTERIOR DOOR
   ************* Construction=INTERIOR DOOR
   ************* Construction=GABLE CONSTRUCTION
   ************* Construction=CRAWL_FLOOR
   ************* Construction=INSULATED PIPE
   ************* Construction=PLAIN PIPE
   ************* Construction=TDD PIPE
   ************* Construction=TDD DOME
   ************* Construction=TDD DIFFUSER
   ************* Construction=CRAWL WALL
   ************* Construction=CEILING-FLOOR-LAYER
   ************* Construction=SLAB CONSTRUCTION W FULL R10 INSULATION
   ************* Construction=SLAB CONSTRUCTION W FULL R5 INSULATION
   ** Warning ** GetDXCoils: Coil:Heating:DX:SingleSpeed="DX_HEATING_COIL" curve values
   **   ~~~   ** ... Defrost Energy Input Ratio Function of Temperature Curve Name = DEFROSTEIR output is not equal to 1.0 (+ or - 10%) at rated conditions.
   **   ~~~   ** ... Curve output at rated conditions = 0.152
   ************* Beginning System Sizing Calculations
   ************* Beginning Plant Sizing Calculations
   ** Warning ** Coil:WaterHeating:AirToWaterHeatPump:Wrapped "HEAT PUMP WATER HEATER EVAPORATOR": Rated air volume flow rate per watt of rated total water heating capacity is out of range
   **   ~~~   ** Min Rated Vol Flow Per Watt=[4.027E-005], Rated Vol Flow Per Watt=[1.510E-004], Max Rated Vol Flow Per Watt=[8.056E-005]. See Input-Output Reference Manual for valid range.
   ************* SizeFan: : Potential issue with equipment sizing for Fan:OnOff HEAT PUMP WATER HEATER FAN
   **   ~~~   ** User-Specified Maximum Flow Rate [m3/s] = 0.22653
   **   ~~~   ** differs from Design Size Maximum Flow Rate [m3/s] = 7.55250E-002
   **   ~~~   ** This may, or may not, indicate mismatched component sizes.
   **   ~~~   ** Verify that the value entered is intended and is consistent with other components.
   ** Warning ** Water heater = WATER HEATER TANK:  Recovery Efficiency and Energy Factor could not be calculated during the test for standard ratings
   **   ~~~   ** Setpoint was never recovered and/or heater never turned on
   ** Warning ** Check input. Pump nominal power or motor efficiency is set to 0, for pump=MAINS PRESSURE
   ** Warning ** Output:Meter: invalid Key Name="ELECTRIC_RANGE:INTERIOREQUIPMENT:ELECTRICITY" - not found.
   ** Warning ** Output:Meter: invalid Key Name="ELECTRIC_DRYER:INTERIOREQUIPMENT:ELECTRICITY" - not found.
   ** Warning ** Output:Meter: invalid Key Name="HEATRECOVERY:ELECTRICITY" - not found.
   ** Warning ** Output:Meter: invalid Key Name="HEATING:NATURALGAS" - not found.
   ** Warning ** Output:Meter: invalid Key Name="WATERSYSTEMS:NATURALGAS" - not found.
   ** Warning ** Output:Meter: invalid Key Name="PROPANE:FACILITY" - not found.
   ** Warning ** Output:Meter: invalid Key Name="HEATING:PROPANE" - not found.
   ************* Testing Individual Branch Integrity
   ************* All Branches passed integrity testing
   ************* Testing Individual Supply Air Path Integrity
   ************* All Supply Air Paths passed integrity testing
   ************* Testing Individual Return Air Path Integrity
   ************* All Return Air Paths passed integrity testing
   ************* No node connection errors were found.
   ************* Beginning Simulation
   ** Warning ** AirflowNetwork::Solver::validate_distribution: Heat pump water heater is simulated along with an AirflowNetwork but is not included in the AirflowNetwork.
   ** Warning ** CalcEquipmentFlowRates: "TOTAL HOT WATER LOAD" - Target water temperature is greater than the hot water temperature by (5.60 C)
   **   ~~~   **  Environment=EXTREME_WINTER, at Simulation time=02/03 06:00 - 06:15
   **   ~~~   ** ...target water temperature     = 53.33 C
   **   ~~~   ** ...hot water temperature        = 47.73 C
   **   ~~~   ** ...Target water temperature should be less than or equal to the hot water temperature. Verify temperature setpoints and schedules.
   ** Warning ** SimHVAC: Maximum iterations (20) exceeded for all HVAC loops, at EXTREME_WINTER, 02/09 10:55 - 11:00
   **   ~~~   ** The solution for one or more of the Air Loop HVAC systems did not appear to converge
   **   ~~~   ** Air System Named = CENTRAL SYSTEM did not converge for mass flow rate
   **   ~~~   ** Check values should be zero. Most Recent values listed first.
   **   ~~~   ** Demand-to-Supply interface mass flow rate check value iteration history trace: 6.619004E-002,6.619004E-002,6.619004E-002,6.619004E-002,6.619004E-002,6.619004E-002,6.619004E-002,6.619004E-002,6.619004E-002,6.619004E-002,
   **   ~~~   ** Supply-to-demand interface deck 1 mass flow rate check value iteration history trace: 6.619004E-002,6.619004E-002,6.619004E-002,6.619004E-002,6.619004E-002,6.619004E-002,6.619004E-002,6.619004E-002,6.619004E-002,6.619004E-002,
   **   ~~~   ** Air System Named = CENTRAL SYSTEM did not converge for energy
   **   ~~~   ** Check values should be zero. Most Recent values listed first.
   **   ~~~   ** Demand-to-Supply interface energy check value iteration history trace: 1311.661872,1311.661872,1311.661872,1311.661872,1311.661872,1311.661872,1311.661872,1311.661872,1311.661872,1311.661872,
   **   ~~~   ** Supply-to-demand interface deck 1 energy check value iteration history trace: 2332.085368,2332.085368,2332.085368,2332.085368,2332.085368,2332.085368,2332.085367,2332.085367,2332.085367,2332.085367,
   ** Warning ** SimHVAC: Maximum iterations (20) exceeded for all HVAC loops, at EXTREME_SUMMER, 06/24 03:45 - 04:00
   **   ~~~   ** The solution for one or more of the Air Loop HVAC systems did not appear to converge
   **   ~~~   ** Air System Named = CENTRAL SYSTEM did not converge for mass flow rate
   **   ~~~   ** Check values should be zero. Most Recent values listed first.
   **   ~~~   ** Demand-to-Supply interface mass flow rate check value iteration history trace: 0.124727,0.124727,0.124727,0.124727,0.124727,0.124727,0.124727,0.124727,0.124727,0.124727,
   **   ~~~   ** Supply-to-demand interface deck 1 mass flow rate check value iteration history trace: 0.124727,0.124727,0.124727,0.124727,0.124727,0.124727,0.124727,0.124727,0.124727,0.124727,
   **   ~~~   ** Air System Named = CENTRAL SYSTEM did not converge for energy
   **   ~~~   ** Check values should be zero. Most Recent values listed first.
   **   ~~~   ** Demand-to-Supply interface energy check value iteration history trace: 3121.366831,3121.366833,3121.366834,3121.366836,3121.366838,3121.366839,3121.366841,3121.366842,3121.366844,3121.366845,
   **   ~~~   ** Supply-to-demand interface deck 1 energy check value iteration history trace: 1829.687890,1829.687891,1829.687891,1829.687892,1829.687893,1829.687894,1829.687895,1829.687896,1829.687897,1829.687898,
   ** Warning ** SimHVAC: Maximum iterations (20) exceeded for all HVAC loops, at ANNUAL, 01/09 06:30 - 06:45
   **   ~~~   ** The solution for one or more of the Air Loop HVAC systems did not appear to converge
   **   ~~~   ** Air System Named = CENTRAL SYSTEM did not converge for mass flow rate
   **   ~~~   ** Check values should be zero. Most Recent values listed first.
   **   ~~~   ** Demand-to-Supply interface mass flow rate check value iteration history trace: 4.610529E-002,4.610529E-002,4.610529E-002,4.610529E-002,4.610529E-002,4.610529E-002,4.610529E-002,4.610529E-002,4.610529E-002,4.610529E-002,
   **   ~~~   ** Supply-to-demand interface deck 1 mass flow rate check value iteration history trace: 4.610529E-002,4.610529E-002,4.610529E-002,4.610529E-002,4.610529E-002,4.610529E-002,4.610529E-002,4.610529E-002,4.610529E-002,4.610529E-002,
   **   ~~~   ** Air System Named = CENTRAL SYSTEM did not converge for energy
   **   ~~~   ** Check values should be zero. Most Recent values listed first.
   **   ~~~   ** Demand-to-Supply interface energy check value iteration history trace: 907.109684,907.109684,907.109684,907.109684,907.109684,907.109684,907.109684,907.109684,907.109684,907.109684,
   **   ~~~   ** Supply-to-demand interface deck 1 energy check value iteration history trace: 1631.537861,1631.537861,1631.537860,1631.537860,1631.537860,1631.537860,1631.537860,1631.537860,1631.537860,1631.537860,
   ** Warning ** SimHVAC: Maximum iterations (20) exceeded for all HVAC loops, at ANNUAL, 02/10 14:55 - 15:00
   **   ~~~   ** The solution for one or more of the Air Loop HVAC systems did not appear to converge
   **   ~~~   ** Air System Named = CENTRAL SYSTEM did not converge for mass flow rate
   **   ~~~   ** Check values should be zero. Most Recent values listed first.
   **   ~~~   ** Demand-to-Supply interface mass flow rate check value iteration history trace: 5.338318E-002,5.338318E-002,5.338318E-002,5.338318E-002,5.338318E-002,5.338318E-002,5.338318E-002,5.338318E-002,5.338318E-002,5.338318E-002,
   **   ~~~   ** Supply-to-demand interface deck 1 mass flow rate check value iteration history trace: 5.338318E-002,5.338318E-002,5.338318E-002,5.338318E-002,5.338318E-002,5.338318E-002,5.338318E-002,5.338318E-002,5.338318E-002,5.338318E-002,
   **   ~~~   ** Air System Named = CENTRAL SYSTEM did not converge for energy
   **   ~~~   ** Check values should be zero. Most Recent values listed first.
   **   ~~~   ** Demand-to-Supply interface energy check value iteration history trace: 1057.871556,1057.871556,1057.871556,1057.871556,1057.871556,1057.871556,1057.871556,1057.871555,1057.871555,1057.871555,
   **   ~~~   ** Supply-to-demand interface deck 1 energy check value iteration history trace: 1640.360605,1640.360605,1640.360605,1640.360605,1640.360605,1640.360604,1640.360604,1640.360604,1640.360604,1640.360604,
   ** Warning ** SimHVAC: Maximum iterations (20) exceeded for all HVAC loops, at ANNUAL, 02/27 07:38 - 07:45
   **   ~~~   ** The solution for one or more of the Air Loop HVAC systems did not appear to converge
   **   ~~~   ** Air System Named = CENTRAL SYSTEM did not converge for mass flow rate
   **   ~~~   ** Check values should be zero. Most Recent values listed first.
   **   ~~~   ** Demand-to-Supply interface mass flow rate check value iteration history trace: 9.557524E-002,9.557524E-002,9.557524E-002,9.557524E-002,9.557524E-002,9.557524E-002,9.557524E-002,9.557524E-002,9.557524E-002,9.557524E-002,
   **   ~~~   ** Supply-to-demand interface deck 1 mass flow rate check value iteration history trace: 9.557524E-002,9.557524E-002,9.557524E-002,9.557524E-002,9.557524E-002,9.557524E-002,9.557524E-002,9.557524E-002,9.557524E-002,9.557524E-002,
   **   ~~~   ** Air System Named = CENTRAL SYSTEM did not converge for energy
   **   ~~~   ** Check values should be zero. Most Recent values listed first.
   **   ~~~   ** Demand-to-Supply interface energy check value iteration history trace: 2268.927265,2268.927266,2268.927267,2268.927267,2268.927268,2268.927268,2268.927269,2268.927270,2268.927270,2268.927271,
   **   ~~~   ** Supply-to-demand interface deck 1 energy check value iteration history trace: 1313.741434,1313.741434,1313.741435,1313.741435,1313.741436,1313.741436,1313.741436,1313.741437,1313.741437,1313.741437,
   ** Warning ** SimHVAC: Maximum iterations (20) exceeded for all HVAC loops, at ANNUAL, 02/27 08:35 - 08:40
   **   ~~~   ** The solution for one or more of the Air Loop HVAC systems did not appear to converge
   **   ~~~   ** Air System Named = CENTRAL SYSTEM did not converge for mass flow rate
   **   ~~~   ** Check values should be zero. Most Recent values listed first.
   **   ~~~   ** Demand-to-Supply interface mass flow rate check value iteration history trace: 5.758091E-002,5.758091E-002,5.758091E-002,5.758091E-002,5.758091E-002,5.758091E-002,5.758091E-002,5.758091E-002,5.758091E-002,5.758091E-002,
   **   ~~~   ** Supply-to-demand interface deck 1 mass flow rate check value iteration history trace: 5.758091E-002,5.758091E-002,5.758091E-002,5.758091E-002,5.758091E-002,5.758091E-002,5.758091E-002,5.758091E-002,5.758091E-002,5.758091E-002,
   **   ~~~   ** Air System Named = CENTRAL SYSTEM did not converge for energy
   **   ~~~   ** Check values should be zero. Most Recent values listed first.
   **   ~~~   ** Demand-to-Supply interface energy check value iteration history trace: 1353.238928,1353.238928,1353.238928,1353.238928,1353.238928,1353.238928,1353.238928,1353.238928,1353.238928,1353.238928,
   **   ~~~   ** Supply-to-demand interface deck 1 energy check value iteration history trace: 779.186199,779.186199,779.186199,779.186199,779.186199,779.186199,779.186199,779.186199,779.186199,779.186199,
   ** Warning ** SimHVAC: Maximum iterations (20) exceeded for all HVAC loops, at ANNUAL, 03/04 10:45 - 11:00
   **   ~~~   ** The solution for one or more of the Air Loop HVAC systems did not appear to converge
   **   ~~~   ** Air System Named = CENTRAL SYSTEM did not converge for mass flow rate
   **   ~~~   ** Check values should be zero. Most Recent values listed first.
   **   ~~~   ** Demand-to-Supply interface mass flow rate check value iteration history trace: 2.408915E-002,2.408915E-002,2.408915E-002,2.408915E-002,2.408915E-002,2.408915E-002,2.408915E-002,2.408915E-002,2.408915E-002,2.408915E-002,
   **   ~~~   ** Supply-to-demand interface deck 1 mass flow rate check value iteration history trace: 2.408915E-002,2.408915E-002,2.408915E-002,2.408915E-002,2.408915E-002,2.408915E-002,2.408915E-002,2.408915E-002,2.408915E-002,2.408915E-002,
   **   ~~~   ** Air System Named = CENTRAL SYSTEM did not converge for energy
   **   ~~~   ** Check values should be zero. Most Recent values listed first.
   **   ~~~   ** Demand-to-Supply interface energy check value iteration history trace: 565.934123,565.934123,565.934123,565.934123,565.934123,565.934123,565.934123,565.934123,565.934123,565.934123,
   **   ~~~   ** Supply-to-demand interface deck 1 energy check value iteration history trace: 228.945766,228.945766,228.945766,228.945766,228.945766,228.945766,228.945766,228.945766,228.945766,228.945766,
   ** Warning ** SimHVAC: Maximum iterations (20) exceeded for all HVAC loops, at ANNUAL, 03/10 00:23 - 00:30
   **   ~~~   ** The solution for one or more of the Air Loop HVAC systems did not appear to converge
   **   ~~~   ** Air System Named = CENTRAL SYSTEM did not converge for mass flow rate
   **   ~~~   ** Check values should be zero. Most Recent values listed first.
   **   ~~~   ** Demand-to-Supply interface mass flow rate check value iteration history trace: 0.123803,0.123803,0.123803,0.123803,0.123803,0.123803,0.123803,0.123803,0.123803,0.123803,
   **   ~~~   ** Supply-to-demand interface deck 1 mass flow rate check value iteration history trace: 0.123803,0.123803,0.123803,0.123803,0.123803,0.123803,0.123803,0.123803,0.123803,0.123803,
   **   ~~~   ** Air System Named = CENTRAL SYSTEM did not converge for energy
   **   ~~~   ** Check values should be zero. Most Recent values listed first.
   **   ~~~   ** Demand-to-Supply interface energy check value iteration history trace: 3054.470377,3054.470378,3054.470378,3054.470378,3054.470378,3054.470378,3054.470379,3054.470379,3054.470379,3054.470379,
   **   ~~~   ** Supply-to-demand interface deck 1 energy check value iteration history trace: 1856.626148,1856.626148,1856.626148,1856.626148,1856.626148,1856.626149,1856.626149,1856.626149,1856.626149,1856.626149,
   ** Warning ** SimHVAC: Maximum iterations (20) exceeded for all HVAC loops, at ANNUAL, 03/26 12:00 - 12:15
   **   ~~~   ** The solution for one or more of the Air Loop HVAC systems did not appear to converge
   **   ~~~   ** Air System Named = CENTRAL SYSTEM did not converge for mass flow rate
   **   ~~~   ** Check values should be zero. Most Recent values listed first.
   **   ~~~   ** Demand-to-Supply interface mass flow rate check value iteration history trace: 2.432569E-002,2.432569E-002,2.432569E-002,2.432569E-002,2.432569E-002,2.432569E-002,2.432569E-002,2.432569E-002,2.432569E-002,2.432569E-002,
   **   ~~~   ** Supply-to-demand interface deck 1 mass flow rate check value iteration history trace: 2.432569E-002,2.432569E-002,2.432569E-002,2.432569E-002,2.432569E-002,2.432569E-002,2.432569E-002,2.432569E-002,2.432569E-002,2.432569E-002,
   **   ~~~   ** Air System Named = CENTRAL SYSTEM did not converge for energy
   **   ~~~   ** Check values should be zero. Most Recent values listed first.
   **   ~~~   ** Demand-to-Supply interface energy check value iteration history trace: 570.747796,570.747796,570.747796,570.747796,570.747796,570.747796,570.747796,570.747796,570.747796,570.747796,
   **   ~~~   ** Supply-to-demand interface deck 1 energy check value iteration history trace: 228.450293,228.450293,228.450293,228.450293,228.450293,228.450293,228.450293,228.450293,228.450293,228.450293,
   ** Warning ** SimHVAC: Maximum iterations (20) exceeded for all HVAC loops, at ANNUAL, 03/27 10:35 - 10:40
   **   ~~~   ** The solution for one or more of the Air Loop HVAC systems did not appear to converge
   **   ~~~   ** Air System Named = CENTRAL SYSTEM did not converge for mass flow rate
   **   ~~~   ** Check values should be zero. Most Recent values listed first.
   **   ~~~   ** Demand-to-Supply interface mass flow rate check value iteration history trace: 0.280995,0.280995,0.280995,0.280995,0.280995,0.280995,0.280995,0.280995,0.280995,0.280995,
   **   ~~~   ** Supply-to-demand interface deck 1 mass flow rate check value iteration history trace: 0.280995,0.280995,0.280995,0.280995,0.280995,0.280995,0.280995,0.280995,0.280995,0.280995,
   **   ~~~   ** Air System Named = CENTRAL SYSTEM did not converge for energy
   **   ~~~   ** Check values should be zero. Most Recent values listed first.
   **   ~~~   ** Demand-to-Supply interface energy check value iteration history trace: 6728.781138,6728.781138,6728.781139,6728.781139,6728.781140,6728.781140,6728.781141,6728.781141,6728.781141,6728.781142,
   **   ~~~   ** Supply-to-demand interface deck 1 energy check value iteration history trace: 3046.071917,3046.071917,3046.071917,3046.071917,3046.071917,3046.071918,3046.071918,3046.071918,3046.071918,3046.071918,
   ** Warning ** SimHVAC: Maximum iterations (20) exceeded for all HVAC loops, at ANNUAL, 12/08 14:45 - 15:00
   **   ~~~   ** The solution for one or more of the Air Loop HVAC systems did not appear to converge
   **   ~~~   ** Air System Named = CENTRAL SYSTEM did not converge for mass flow rate
   **   ~~~   ** Check values should be zero. Most Recent values listed first.
   **   ~~~   ** Demand-to-Supply interface mass flow rate check value iteration history trace: 7.032481E-002,7.032481E-002,7.032481E-002,7.032481E-002,7.032481E-002,7.032481E-002,7.032481E-002,7.032481E-002,7.032481E-002,7.032481E-002,
   **   ~~~   ** Supply-to-demand interface deck 1 mass flow rate check value iteration history trace: 7.032481E-002,7.032481E-002,7.032481E-002,7.032481E-002,7.032481E-002,7.032481E-002,7.032481E-002,7.032481E-002,7.032481E-002,7.032481E-002,
   **   ~~~   ** Air System Named = CENTRAL SYSTEM did not converge for energy
   **   ~~~   ** Check values should be zero. Most Recent values listed first.
   **   ~~~   ** Demand-to-Supply interface energy check value iteration history trace: 1632.866764,1632.866764,1632.866764,1632.866764,1632.866764,1632.866764,1632.866764,1632.866765,1632.866765,1632.866765,
   **   ~~~   ** Supply-to-demand interface deck 1 energy check value iteration history trace: 652.677712,652.677712,652.677712,652.677712,652.677712,652.677712,652.677712,652.677712,652.677712,652.677712,
   ** Warning ** SimHVAC: Maximum iterations (20) exceeded for all HVAC loops, at ANNUAL, 12/12 06:45 - 07:00
   **   ~~~   ** The solution for one or more of the Air Loop HVAC systems did not appear to converge
   **   ~~~   ** Air System Named = CENTRAL SYSTEM did not converge for mass flow rate
   **   ~~~   ** Check values should be zero. Most Recent values listed first.
   **   ~~~   ** Demand-to-Supply interface mass flow rate check value iteration history trace: 6.425344E-002,6.425344E-002,6.425344E-002,6.425344E-002,6.425344E-002,6.425344E-002,6.425344E-002,6.425344E-002,6.425344E-002,6.425344E-002,
   **   ~~~   ** Supply-to-demand interface deck 1 mass flow rate check value iteration history trace: 6.425344E-002,6.425344E-002,6.425344E-002,6.425344E-002,6.425344E-002,6.425344E-002,6.425344E-002,6.425344E-002,6.425344E-002,6.425344E-002,
   **   ~~~   ** Air System Named = CENTRAL SYSTEM did not converge for energy
   **   ~~~   ** Check values should be zero. Most Recent values listed first.
   **   ~~~   ** Demand-to-Supply interface energy check value iteration history trace: 1273.541968,1273.541968,1273.541968,1273.541968,1273.541968,1273.541968,1273.541968,1273.541968,1273.541968,1273.541968,
   **   ~~~   ** Supply-to-demand interface deck 1 energy check value iteration history trace: 2237.286332,2237.286332,2237.286332,2237.286332,2237.286332,2237.286332,2237.286332,2237.286332,2237.286331,2237.286331,
   ** Warning ** SimHVAC: Maximum iterations (20) exceeded for all HVAC loops, at ANNUAL, 12/15 07:30 - 07:45
   **   ~~~   ** The solution for one or more of the Air Loop HVAC systems did not appear to converge
   **   ~~~   ** Air System Named = CENTRAL SYSTEM did not converge for mass flow rate
   **   ~~~   ** Check values should be zero. Most Recent values listed first.
   **   ~~~   ** Demand-to-Supply interface mass flow rate check value iteration history trace: 5.810757E-002,5.810757E-002,5.810757E-002,5.810757E-002,5.810757E-002,5.810757E-002,5.810757E-002,5.810757E-002,5.810757E-002,5.810757E-002,
   **   ~~~   ** Supply-to-demand interface deck 1 mass flow rate check value iteration history trace: 5.810757E-002,5.810757E-002,5.810757E-002,5.810757E-002,5.810757E-002,5.810757E-002,5.810757E-002,5.810757E-002,5.810757E-002,5.810757E-002,
   **   ~~~   ** Air System Named = CENTRAL SYSTEM did not converge for energy
   **   ~~~   ** Check values should be zero. Most Recent values listed first.
   **   ~~~   ** Demand-to-Supply interface energy check value iteration history trace: 1401.708907,1401.708907,1401.708907,1401.708907,1401.708907,1401.708908,1401.708908,1401.708908,1401.708908,1401.708909,
   **   ~~~   ** Supply-to-demand interface deck 1 energy check value iteration history trace: 835.919101,835.919101,835.919101,835.919102,835.919102,835.919102,835.919102,835.919102,835.919102,835.919102,
   ** Warning ** SimHVAC: Maximum iterations (20) exceeded for all HVAC loops, at ANNUAL, 12/15 10:25 - 10:30
   **   ~~~   ** The solution for one or more of the Air Loop HVAC systems did not appear to converge
   **   ~~~   ** Air System Named = CENTRAL SYSTEM did not converge for mass flow rate
   **   ~~~   ** Check values should be zero. Most Recent values listed first.
   **   ~~~   ** Demand-to-Supply interface mass flow rate check value iteration history trace: 0.308951,0.308951,0.308951,0.308951,0.308951,0.308951,0.308951,0.308951,0.308951,0.308951,
   **   ~~~   ** Supply-to-demand interface deck 1 mass flow rate check value iteration history trace: 0.308951,0.308951,0.308951,0.308951,0.308951,0.308951,0.308951,0.308951,0.308951,0.308951,
   **   ~~~   ** Air System Named = CENTRAL SYSTEM did not converge for energy
   **   ~~~   ** Check values should be zero. Most Recent values listed first.
   **   ~~~   ** Demand-to-Supply interface energy check value iteration history trace: 7417.250156,7417.250158,7417.250161,7417.250163,7417.250165,7417.250167,7417.250170,7417.250172,7417.250174,7417.250176,
   **   ~~~   ** Supply-to-demand interface deck 1 energy check value iteration history trace: 4200.244591,4200.244592,4200.244593,4200.244594,4200.244596,4200.244597,4200.244598,4200.244600,4200.244601,4200.244602,
   ************* Simulation Error Summary *************
   ** Warning ** The following Report Variables were requested but not generated -- check.rdd file
   **   ~~~   ** Either the IDF did not contain these elements, the variable name is misspelled,
   **   ~~~   ** or the requested variable is an advanced output which requires Output : Diagnostics, DisplayAdvancedReportVariables;
   ************* Key=*, VarName=BASEBOARD TOTAL HEATING ENERGY, Frequency=
   ************* Key=*, VarName=WATER HEATER NATURALGAS ENERGY, Frequency=
   ************* Key=*, VarName=COOLING COIL TOTAL HEATING ENERGY, Frequency=
   ************* There are 34 unused schedules in input.
   ************* There are 388 unused week schedules in input.
   ************* There are 396 unused day schedules in input.
   ************* Use Output:Diagnostics,DisplayUnusedSchedules; to see them.
   *************
   ************* ===== Recurring Error Summary =====
   ************* The following recurring error messages occurred.
   *************
   *************  ** Warning ** "TOTAL HOT WATER LOAD" - Target water temperature should be less than or equal to the hot water temperature error continues...
   *************  **   ~~~   **   This error occurred 137993 total times;
   *************  **   ~~~   **   during Warmup 0 times;
   *************  **   ~~~   **   during Sizing 0 times.
   *************  **   ~~~   **   Max=10.575852  Min=2.289363E-004
   *************
   *************  ** Warning ** SimHVAC: Exceeding Maximum iterations for all HVAC loops, during ANNUAL continues
   *************  **   ~~~   **   This error occurred 2 total times;
   *************  **   ~~~   **   during Warmup 0 times;
   *************  **   ~~~   **   during Sizing 0 times.
   *************
   *************
   ************* ===== Final Error Summary =====
   ************* The following error categories occurred.  Consider correcting or noting.
   ************* Nominally Unused Constructions
   ************* ..The nominally unused constructions warning is provided to alert you to potential conditions that can cause
   ************* ..extra time during simulation. Each construction is calculated by the algorithm indicated in the HeatBalanceAlgorithm
   ************* ..object. You may remove the constructions indicated (when you use the DisplayExtraWarnings option).
   *************
   ************* EnergyPlus Warmup Error Summary. During Warmup: 1 Warning; 0 Severe Errors.
   ************* EnergyPlus Sizing Error Summary. During Sizing: 4 Warning; 0 Severe Errors.
   ************* EnergyPlus Completed Successfully-- 138026 Warning; 0 Severe Errors; Elapsed Time=00hr 01min 39.99sec
