Program Version,EnergyPlus, Version 22.2.0-c249759bad, YMD=2023.09.01 15:27,
   ************* Beginning Zone Sizing Calculations
   ** Warning ** ProcessScheduleInput: Schedule:Constant="ALWAYS ON DISCRETE", Schedule Type Limits Name="ONOFF" not found -- will not be validated
   ** Warning ** Foundation:Kiva="KIVA FOUNDATION", no Interior Horizontal Insulation Material Name defined
   **   ~~~   ** Interior Horizontal Insulation Depth will not be used.
   ** Warning ** CheckUsedConstructions: There are 15 nominally unused constructions in input.
   **   ~~~   ** Each Unused construction is shown.
   ************* Construction=INTERIOR FLOOR
   ************* Construction=INTERIOR WINDOW
   ************* Construction=EXTERIOR DOOR
   ************* Construction=INTERIOR DOOR
   ************* Construction=GABLE CONSTRUCTION
   ************* Construction=CRAWL_FLOOR
   ************* Construction=INSULATED PIPE
   ************* Construction=PLAIN PIPE
   ************* Construction=TDD PIPE
   ************* Construction=TDD DOME
   ************* Construction=TDD DIFFUSER
   ************* Construction=CRAWL WALL
   ************* Construction=CEILING-FLOOR-LAYER
   ************* Construction=SLAB CONSTRUCTION W FULL R10 INSULATION
   ************* Construction=SLAB CONSTRUCTION W FULL R5 INSULATION
   ** Warning ** GetDXCoils: Coil:Heating:DX:SingleSpeed="DX_HEATING_COIL" curve values
   **   ~~~   ** ... Defrost Energy Input Ratio Function of Temperature Curve Name = DEFROSTEIR output is not equal to 1.0 (+ or - 10%) at rated conditions.
   **   ~~~   ** ... Curve output at rated conditions = 0.152
   ************* Beginning System Sizing Calculations
   ************* Beginning Plant Sizing Calculations
   ** Warning ** Coil:WaterHeating:AirToWaterHeatPump:Wrapped "HEAT PUMP WATER HEATER EVAPORATOR": Rated air volume flow rate per watt of rated total water heating capacity is out of range
   **   ~~~   ** Min Rated Vol Flow Per Watt=[4.027E-005], Rated Vol Flow Per Watt=[1.386E-004], Max Rated Vol Flow Per Watt=[8.056E-005]. See Input-Output Reference Manual for valid range.
   ** Warning ** Water heater = WATER HEATER TANK:  Recovery Efficiency and Energy Factor could not be calculated during the test for standard ratings
   **   ~~~   ** Setpoint was never recovered and/or heater never turned on
   ** Warning ** Check input. Pump nominal power or motor efficiency is set to 0, for pump=MAINS PRESSURE
   ** Warning ** Output:Meter: invalid Key Name="ELECTRIC_RANGE:INTERIOREQUIPMENT:ELECTRICITY" - not found.
   ** Warning ** Output:Meter: invalid Key Name="ELECTRIC_DRYER:INTERIOREQUIPMENT:ELECTRICITY" - not found.
   ** Warning ** Output:Meter: invalid Key Name="HEATRECOVERY:ELECTRICITY" - not found.
   ** Warning ** Output:Meter: invalid Key Name="HEATING:NATURALGAS" - not found.
   ** Warning ** Output:Meter: invalid Key Name="WATERSYSTEMS:NATURALGAS" - not found.
   ** Warning ** Output:Meter: invalid Key Name="PROPANE:FACILITY" - not found.
   ** Warning ** Output:Meter: invalid Key Name="HEATING:PROPANE" - not found.
   ************* Testing Individual Branch Integrity
   ************* All Branches passed integrity testing
   ************* Testing Individual Supply Air Path Integrity
   ************* All Supply Air Paths passed integrity testing
   ************* Testing Individual Return Air Path Integrity
   ************* All Return Air Paths passed integrity testing
   ************* No node connection errors were found.
   ************* Beginning Simulation
   ** Warning ** AirflowNetwork::Solver::validate_distribution: Heat pump water heater is simulated along with an AirflowNetwork but is not included in the AirflowNetwork.
   ** Warning ** CalcEquipmentFlowRates: "TOTAL HOT WATER LOAD" - Target water temperature is greater than the hot water temperature by (1.68 C)
   **   ~~~   **  Environment=EXTREME_WINTER, at Simulation time=01/15 06:00 - 06:15
   **   ~~~   ** ...target water temperature     = 53.33 C
   **   ~~~   ** ...hot water temperature        = 51.65 C
   **   ~~~   ** ...Target water temperature should be less than or equal to the hot water temperature. Verify temperature setpoints and schedules.
   ** Warning ** SimHVAC: Maximum iterations (20) exceeded for all HVAC loops, at EXTREME_WINTER, 01/17 21:00 - 21:08
   **   ~~~   ** The solution for one or more of the Air Loop HVAC systems did not appear to converge
   **   ~~~   ** Air System Named = CENTRAL SYSTEM did not converge for mass flow rate
   **   ~~~   ** Check values should be zero. Most Recent values listed first.
   **   ~~~   ** Demand-to-Supply interface mass flow rate check value iteration history trace: 5.685740E-002,5.685740E-002,5.685740E-002,5.685740E-002,5.685740E-002,5.685740E-002,5.685740E-002,5.685740E-002,5.685740E-002,5.685740E-002,
   **   ~~~   ** Supply-to-demand interface deck 1 mass flow rate check value iteration history trace: 5.685740E-002,5.685740E-002,5.685740E-002,5.685740E-002,5.685740E-002,5.685740E-002,5.685740E-002,5.685740E-002,5.685740E-002,5.685740E-002,
   **   ~~~   ** Air System Named = CENTRAL SYSTEM did not converge for energy
   **   ~~~   ** Check values should be zero. Most Recent values listed first.
   **   ~~~   ** Demand-to-Supply interface energy check value iteration history trace: 1126.261351,1126.261351,1126.261351,1126.261351,1126.261351,1126.261351,1126.261351,1126.261351,1126.261351,1126.261351,
   **   ~~~   ** Supply-to-demand interface deck 1 energy check value iteration history trace: 1996.869649,1996.869649,1996.869649,1996.869649,1996.869649,1996.869649,1996.869649,1996.869648,1996.869648,1996.869648,
   ** Warning ** SimHVAC: Maximum iterations (20) exceeded for all HVAC loops, at ANNUAL, 01/08 07:45 - 08:00
   **   ~~~   ** The solution for one or more of the Air Loop HVAC systems did not appear to converge
   **   ~~~   ** Air System Named = CENTRAL SYSTEM did not converge for mass flow rate
   **   ~~~   ** Check values should be zero. Most Recent values listed first.
   **   ~~~   ** Demand-to-Supply interface mass flow rate check value iteration history trace: 6.137295E-002,6.137295E-002,6.137295E-002,6.137295E-002,6.137295E-002,6.137295E-002,6.137295E-002,6.137295E-002,6.137295E-002,6.137295E-002,
   **   ~~~   ** Supply-to-demand interface deck 1 mass flow rate check value iteration history trace: 6.137295E-002,6.137295E-002,6.137295E-002,6.137295E-002,6.137295E-002,6.137295E-002,6.137295E-002,6.137295E-002,6.137295E-002,6.137295E-002,
   **   ~~~   ** Air System Named = CENTRAL SYSTEM did not converge for energy
   **   ~~~   ** Check values should be zero. Most Recent values listed first.
   **   ~~~   ** Demand-to-Supply interface energy check value iteration history trace: 1216.698601,1216.698601,1216.698601,1216.698601,1216.698601,1216.698601,1216.698600,1216.698600,1216.698600,1216.698600,
   **   ~~~   ** Supply-to-demand interface deck 1 energy check value iteration history trace: 2138.263444,2138.263444,2138.263443,2138.263443,2138.263443,2138.263443,2138.263443,2138.263443,2138.263443,2138.263443,
   ** Warning ** SimHVAC: Maximum iterations (20) exceeded for all HVAC loops, at ANNUAL, 01/08 07:53 - 08:00
   **   ~~~   ** The solution for one or more of the Air Loop HVAC systems did not appear to converge
   **   ~~~   ** Air System Named = CENTRAL SYSTEM did not converge for mass flow rate
   **   ~~~   ** Check values should be zero. Most Recent values listed first.
   **   ~~~   ** Demand-to-Supply interface mass flow rate check value iteration history trace: 6.200428E-002,6.200428E-002,6.200428E-002,6.200428E-002,6.200428E-002,6.200428E-002,6.200428E-002,6.200428E-002,6.200428E-002,6.200428E-002,
   **   ~~~   ** Supply-to-demand interface deck 1 mass flow rate check value iteration history trace: 6.200428E-002,6.200428E-002,6.200428E-002,6.200428E-002,6.200428E-002,6.200428E-002,6.200428E-002,6.200428E-002,6.200428E-002,6.200428E-002,
   **   ~~~   ** Air System Named = CENTRAL SYSTEM did not converge for energy
   **   ~~~   ** Check values should be zero. Most Recent values listed first.
   **   ~~~   ** Demand-to-Supply interface energy check value iteration history trace: 1229.095635,1229.095635,1229.095635,1229.095635,1229.095635,1229.095635,1229.095635,1229.095634,1229.095634,1229.095634,
   **   ~~~   ** Supply-to-demand interface deck 1 energy check value iteration history trace: 2160.144948,2160.144948,2160.144948,2160.144948,2160.144948,2160.144947,2160.144947,2160.144947,2160.144947,2160.144947,
   ** Warning ** SimHVAC: Maximum iterations (20) exceeded for all HVAC loops, at ANNUAL, 01/09 07:00 - 07:15
   **   ~~~   ** The solution for one or more of the Air Loop HVAC systems did not appear to converge
   **   ~~~   ** Air System Named = CENTRAL SYSTEM did not converge for mass flow rate
   **   ~~~   ** Check values should be zero. Most Recent values listed first.
   **   ~~~   ** Demand-to-Supply interface mass flow rate check value iteration history trace: 5.233360E-002,5.233360E-002,5.233360E-002,5.233360E-002,5.233360E-002,5.233360E-002,5.233360E-002,5.233360E-002,5.233360E-002,5.233360E-002,
   **   ~~~   ** Supply-to-demand interface deck 1 mass flow rate check value iteration history trace: 5.233360E-002,5.233360E-002,5.233360E-002,5.233360E-002,5.233360E-002,5.233360E-002,5.233360E-002,5.233360E-002,5.233360E-002,5.233360E-002,
   **   ~~~   ** Air System Named = CENTRAL SYSTEM did not converge for energy
   **   ~~~   ** Check values should be zero. Most Recent values listed first.
   **   ~~~   ** Demand-to-Supply interface energy check value iteration history trace: 1024.598225,1024.598225,1024.598225,1024.598225,1024.598225,1024.598225,1024.598225,1024.598225,1024.598225,1024.598225,
   **   ~~~   ** Supply-to-demand interface deck 1 energy check value iteration history trace: 1894.627331,1894.627331,1894.627331,1894.627331,1894.627331,1894.627331,1894.627331,1894.627331,1894.627331,1894.627331,
   ** Warning ** SimHVAC: Maximum iterations (20) exceeded for all HVAC loops, at ANNUAL, 01/11 06:08 - 06:15
   **   ~~~   ** The solution for one or more of the Air Loop HVAC systems did not appear to converge
   **   ~~~   ** Air System Named = CENTRAL SYSTEM did not converge for mass flow rate
   **   ~~~   ** Check values should be zero. Most Recent values listed first.
   **   ~~~   ** Demand-to-Supply interface mass flow rate check value iteration history trace: 4.540470E-002,4.540470E-002,4.540470E-002,4.540470E-002,4.540470E-002,4.540470E-002,4.540470E-002,4.540470E-002,4.540470E-002,4.540470E-002,
   **   ~~~   ** Supply-to-demand interface deck 1 mass flow rate check value iteration history trace: 4.540470E-002,4.540470E-002,4.540470E-002,4.540470E-002,4.540470E-002,4.540470E-002,4.540470E-002,4.540470E-002,4.540470E-002,4.540470E-002,
   **   ~~~   ** Air System Named = CENTRAL SYSTEM did not converge for energy
   **   ~~~   ** Check values should be zero. Most Recent values listed first.
   **   ~~~   ** Demand-to-Supply interface energy check value iteration history trace: 899.868023,899.868023,899.868023,899.868023,899.868023,899.868023,899.868023,899.868023,899.868023,899.868023,
   **   ~~~   ** Supply-to-demand interface deck 1 energy check value iteration history trace: 1700.027739,1700.027739,1700.027739,1700.027739,1700.027739,1700.027739,1700.027739,1700.027739,1700.027739,1700.027739,
   ** Warning ** SimHVAC: Maximum iterations (20) exceeded for all HVAC loops, at ANNUAL, 01/17 19:30 - 19:45
   **   ~~~   ** The solution for one or more of the Air Loop HVAC systems did not appear to converge
   **   ~~~   ** Air System Named = CENTRAL SYSTEM did not converge for mass flow rate
   **   ~~~   ** Check values should be zero. Most Recent values listed first.
   **   ~~~   ** Demand-to-Supply interface mass flow rate check value iteration history trace: 7.359903E-002,7.359903E-002,7.359903E-002,7.359903E-002,7.359903E-002,7.359903E-002,7.359903E-002,7.359903E-002,7.359903E-002,7.359903E-002,
   **   ~~~   ** Supply-to-demand interface deck 1 mass flow rate check value iteration history trace: 7.359903E-002,7.359903E-002,7.359903E-002,7.359903E-002,7.359903E-002,7.359903E-002,7.359903E-002,7.359903E-002,7.359903E-002,7.359903E-002,
   **   ~~~   ** Air System Named = CENTRAL SYSTEM did not converge for energy
   **   ~~~   ** Check values should be zero. Most Recent values listed first.
   **   ~~~   ** Demand-to-Supply interface energy check value iteration history trace: 1456.463472,1456.463472,1456.463471,1456.463471,1456.463471,1456.463471,1456.463471,1456.463471,1456.463471,1456.463471,
   **   ~~~   ** Supply-to-demand interface deck 1 energy check value iteration history trace: 2609.842191,2609.842191,2609.842190,2609.842190,2609.842190,2609.842190,2609.842190,2609.842190,2609.842190,2609.842190,
   ** Warning ** SimHVAC: Maximum iterations (20) exceeded for all HVAC loops, at ANNUAL, 03/04 11:08 - 11:11
   **   ~~~   ** The solution for one or more of the Air Loop HVAC systems did not appear to converge
   **   ~~~   ** Air System Named = CENTRAL SYSTEM did not converge for mass flow rate
   **   ~~~   ** Check values should be zero. Most Recent values listed first.
   **   ~~~   ** Demand-to-Supply interface mass flow rate check value iteration history trace: 7.211629E-002,7.211629E-002,7.211629E-002,7.211629E-002,7.211629E-002,7.211629E-002,7.211629E-002,7.211629E-002,7.211629E-002,7.211629E-002,
   **   ~~~   ** Supply-to-demand interface deck 1 mass flow rate check value iteration history trace: 7.211629E-002,7.211629E-002,7.211629E-002,7.211629E-002,7.211629E-002,7.211629E-002,7.211629E-002,7.211629E-002,7.211629E-002,7.211629E-002,
   **   ~~~   ** Air System Named = CENTRAL SYSTEM did not converge for energy
   **   ~~~   ** Check values should be zero. Most Recent values listed first.
   **   ~~~   ** Demand-to-Supply interface energy check value iteration history trace: 1426.302139,1426.302138,1426.302138,1426.302138,1426.302138,1426.302138,1426.302138,1426.302138,1426.302138,1426.302138,
   **   ~~~   ** Supply-to-demand interface deck 1 energy check value iteration history trace: 2378.796643,2378.796643,2378.796643,2378.796643,2378.796642,2378.796642,2378.796642,2378.796642,2378.796642,2378.796642,
   ** Warning ** SimHVAC: Maximum iterations (20) exceeded for all HVAC loops, at ANNUAL, 03/13 07:15 - 07:22
   **   ~~~   ** The solution for one or more of the Air Loop HVAC systems did not appear to converge
   **   ~~~   ** Air System Named = CENTRAL SYSTEM did not converge for mass flow rate
   **   ~~~   ** Check values should be zero. Most Recent values listed first.
   **   ~~~   ** Demand-to-Supply interface mass flow rate check value iteration history trace: 5.436796E-002,5.436796E-002,5.436796E-002,5.436796E-002,5.436796E-002,5.436796E-002,5.436796E-002,5.436796E-002,5.436796E-002,5.436796E-002,
   **   ~~~   ** Supply-to-demand interface deck 1 mass flow rate check value iteration history trace: 5.436796E-002,5.436796E-002,5.436796E-002,5.436796E-002,5.436796E-002,5.436796E-002,5.436796E-002,5.436796E-002,5.436796E-002,5.436796E-002,
   **   ~~~   ** Air System Named = CENTRAL SYSTEM did not converge for energy
   **   ~~~   ** Check values should be zero. Most Recent values listed first.
   **   ~~~   ** Demand-to-Supply interface energy check value iteration history trace: 1077.071227,1077.071227,1077.071227,1077.071227,1077.071227,1077.071227,1077.071227,1077.071227,1077.071227,1077.071227,
   **   ~~~   ** Supply-to-demand interface deck 1 energy check value iteration history trace: 1956.573947,1956.573947,1956.573947,1956.573947,1956.573947,1956.573947,1956.573947,1956.573947,1956.573947,1956.573947,
   ** Warning ** SimHVAC: Maximum iterations (20) exceeded for all HVAC loops, at ANNUAL, 03/18 08:34 - 08:36
   **   ~~~   ** The solution for one or more of the Air Loop HVAC systems did not appear to converge
   **   ~~~   ** Air System Named = CENTRAL SYSTEM did not converge for mass flow rate
   **   ~~~   ** Check values should be zero. Most Recent values listed first.
   **   ~~~   ** Demand-to-Supply interface mass flow rate check value iteration history trace: 8.329034E-002,8.329034E-002,8.329034E-002,8.329034E-002,8.329034E-002,8.329034E-002,8.329034E-002,8.329034E-002,8.329034E-002,8.329034E-002,
   **   ~~~   ** Supply-to-demand interface deck 1 mass flow rate check value iteration history trace: 8.329034E-002,8.329034E-002,8.329034E-002,8.329034E-002,8.329034E-002,8.329034E-002,8.329034E-002,8.329034E-002,8.329034E-002,8.329034E-002,
   **   ~~~   ** Air System Named = CENTRAL SYSTEM did not converge for energy
   **   ~~~   ** Check values should be zero. Most Recent values listed first.
   **   ~~~   ** Demand-to-Supply interface energy check value iteration history trace: 1650.581867,1650.581867,1650.581867,1650.581867,1650.581867,1650.581866,1650.581866,1650.581866,1650.581866,1650.581866,
   **   ~~~   ** Supply-to-demand interface deck 1 energy check value iteration history trace: 2868.203813,2868.203813,2868.203813,2868.203813,2868.203813,2868.203812,2868.203812,2868.203812,2868.203812,2868.203812,
   ** Warning ** SimHVAC: Maximum iterations (20) exceeded for all HVAC loops, at ANNUAL, 04/07 07:15 - 07:30
   **   ~~~   ** The solution for one or more of the Air Loop HVAC systems did not appear to converge
   **   ~~~   ** Air System Named = CENTRAL SYSTEM did not converge for mass flow rate
   **   ~~~   ** Check values should be zero. Most Recent values listed first.
   **   ~~~   ** Demand-to-Supply interface mass flow rate check value iteration history trace: 8.245110E-002,8.245110E-002,8.245110E-002,8.245110E-002,8.245110E-002,8.245110E-002,8.245110E-002,8.245110E-002,8.245110E-002,8.245110E-002,
   **   ~~~   ** Supply-to-demand interface deck 1 mass flow rate check value iteration history trace: 8.245110E-002,8.245110E-002,8.245110E-002,8.245110E-002,8.245110E-002,8.245110E-002,8.245110E-002,8.245110E-002,8.245110E-002,8.245110E-002,
   **   ~~~   ** Air System Named = CENTRAL SYSTEM did not converge for energy
   **   ~~~   ** Check values should be zero. Most Recent values listed first.
   **   ~~~   ** Demand-to-Supply interface energy check value iteration history trace: 1633.810675,1633.810675,1633.810675,1633.810675,1633.810675,1633.810675,1633.810675,1633.810675,1633.810675,1633.810675,
   **   ~~~   ** Supply-to-demand interface deck 1 energy check value iteration history trace: 2767.341906,2767.341906,2767.341906,2767.341906,2767.341906,2767.341906,2767.341906,2767.341906,2767.341905,2767.341905,
   ** Warning ** SimHVAC: Maximum iterations (20) exceeded for all HVAC loops, at ANNUAL, 04/07 07:15 - 07:18
   **   ~~~   ** The solution for one or more of the Air Loop HVAC systems did not appear to converge
   **   ~~~   ** Air System Named = CENTRAL SYSTEM did not converge for mass flow rate
   **   ~~~   ** Check values should be zero. Most Recent values listed first.
   **   ~~~   ** Demand-to-Supply interface mass flow rate check value iteration history trace: 8.254569E-002,8.254569E-002,8.254569E-002,8.254569E-002,8.254569E-002,8.254569E-002,8.254569E-002,8.254569E-002,8.254569E-002,8.254569E-002,
   **   ~~~   ** Supply-to-demand interface deck 1 mass flow rate check value iteration history trace: 8.254569E-002,8.254569E-002,8.254569E-002,8.254569E-002,8.254569E-002,8.254569E-002,8.254569E-002,8.254569E-002,8.254569E-002,8.254569E-002,
   **   ~~~   ** Air System Named = CENTRAL SYSTEM did not converge for energy
   **   ~~~   ** Check values should be zero. Most Recent values listed first.
   **   ~~~   ** Demand-to-Supply interface energy check value iteration history trace: 1635.687550,1635.687550,1635.687549,1635.687549,1635.687549,1635.687549,1635.687549,1635.687549,1635.687549,1635.687549,
   **   ~~~   ** Supply-to-demand interface deck 1 energy check value iteration history trace: 2770.543917,2770.543917,2770.543917,2770.543917,2770.543916,2770.543916,2770.543916,2770.543916,2770.543916,2770.543916,
   ** Warning ** SimHVAC: Maximum iterations (20) exceeded for all HVAC loops, at ANNUAL, 04/12 06:38 - 06:45
   **   ~~~   ** The solution for one or more of the Air Loop HVAC systems did not appear to converge
   **   ~~~   ** Air System Named = CENTRAL SYSTEM did not converge for mass flow rate
   **   ~~~   ** Check values should be zero. Most Recent values listed first.
   **   ~~~   ** Demand-to-Supply interface mass flow rate check value iteration history trace: 0.199139,0.199139,0.199139,0.199139,0.199139,0.199139,0.199139,0.199139,0.199139,0.199139,
   **   ~~~   ** Supply-to-demand interface deck 1 mass flow rate check value iteration history trace: 0.199139,0.199139,0.199139,0.199139,0.199139,0.199139,0.199139,0.199139,0.199139,0.199139,
   **   ~~~   ** Air System Named = CENTRAL SYSTEM did not converge for energy
   **   ~~~   ** Check values should be zero. Most Recent values listed first.
   **   ~~~   ** Demand-to-Supply interface energy check value iteration history trace: 4723.173595,4723.173596,4723.173598,4723.173599,4723.173601,4723.173602,4723.173604,4723.173606,4723.173607,4723.173609,
   **   ~~~   ** Supply-to-demand interface deck 1 energy check value iteration history trace: 2994.628922,2994.628923,2994.628924,2994.628925,2994.628926,2994.628927,2994.628928,2994.628929,2994.628930,2994.628931,
   ** Warning ** SimHVAC: Maximum iterations (20) exceeded for all HVAC loops, at ANNUAL, 04/18 07:45 - 08:00
   **   ~~~   ** The solution for one or more of the Air Loop HVAC systems did not appear to converge
   **   ~~~   ** Air System Named = CENTRAL SYSTEM did not converge for mass flow rate
   **   ~~~   ** Check values should be zero. Most Recent values listed first.
   **   ~~~   ** Demand-to-Supply interface mass flow rate check value iteration history trace: 9.367937E-002,9.367937E-002,9.367937E-002,9.367937E-002,9.367937E-002,9.367937E-002,9.367937E-002,9.367937E-002,9.367937E-002,9.367937E-002,
   **   ~~~   ** Supply-to-demand interface deck 1 mass flow rate check value iteration history trace: 9.367937E-002,9.367937E-002,9.367937E-002,9.367937E-002,9.367937E-002,9.367937E-002,9.367937E-002,9.367937E-002,9.367937E-002,9.367937E-002,
   **   ~~~   ** Air System Named = CENTRAL SYSTEM did not converge for energy
   **   ~~~   ** Check values should be zero. Most Recent values listed first.
   **   ~~~   ** Demand-to-Supply interface energy check value iteration history trace: 2244.934835,2244.934835,2244.934835,2244.934835,2244.934835,2244.934835,2244.934836,2244.934836,2244.934836,2244.934836,
   **   ~~~   ** Supply-to-demand interface deck 1 energy check value iteration history trace: 1241.327398,1241.327398,1241.327398,1241.327398,1241.327399,1241.327399,1241.327399,1241.327399,1241.327399,1241.327399,
   ** Warning ** SimHVAC: Maximum iterations (20) exceeded for all HVAC loops, at ANNUAL, 10/18 06:00 - 06:15
   **   ~~~   ** The solution for one or more of the Air Loop HVAC systems did not appear to converge
   **   ~~~   ** Air System Named = CENTRAL SYSTEM did not converge for mass flow rate
   **   ~~~   ** Check values should be zero. Most Recent values listed first.
   **   ~~~   ** Demand-to-Supply interface mass flow rate check value iteration history trace: 7.509138E-002,7.509138E-002,7.509138E-002,7.509138E-002,7.509138E-002,7.509138E-002,7.509138E-002,7.509138E-002,7.509138E-002,7.509138E-002,
   **   ~~~   ** Supply-to-demand interface deck 1 mass flow rate check value iteration history trace: 7.509138E-002,7.509138E-002,7.509138E-002,7.509138E-002,7.509138E-002,7.509138E-002,7.509138E-002,7.509138E-002,7.509138E-002,7.509138E-002,
   **   ~~~   ** Air System Named = CENTRAL SYSTEM did not converge for energy
   **   ~~~   ** Check values should be zero. Most Recent values listed first.
   **   ~~~   ** Demand-to-Supply interface energy check value iteration history trace: 1482.702559,1482.702559,1482.702559,1482.702558,1482.702558,1482.702558,1482.702558,1482.702558,1482.702558,1482.702558,
   **   ~~~   ** Supply-to-demand interface deck 1 energy check value iteration history trace: 2533.240708,2533.240708,2533.240708,2533.240708,2533.240708,2533.240708,2533.240707,2533.240707,2533.240707,2533.240707,
   ************* Simulation Error Summary *************
   ** Warning ** The following Report Variables were requested but not generated -- check.rdd file
   **   ~~~   ** Either the IDF did not contain these elements, the variable name is misspelled,
   **   ~~~   ** or the requested variable is an advanced output which requires Output : Diagnostics, DisplayAdvancedReportVariables;
   ************* Key=*, VarName=BASEBOARD TOTAL HEATING ENERGY, Frequency=
   ************* Key=*, VarName=WATER HEATER NATURALGAS ENERGY, Frequency=
   ************* Key=*, VarName=COOLING COIL TOTAL HEATING ENERGY, Frequency=
   ************* There are 34 unused schedules in input.
   ************* There are 388 unused week schedules in input.
   ************* There are 396 unused day schedules in input.
   ************* Use Output:Diagnostics,DisplayUnusedSchedules; to see them.
   *************
   ************* ===== Recurring Error Summary =====
   ************* The following recurring error messages occurred.
   *************
   *************  ** Warning ** "TOTAL HOT WATER LOAD" - Target water temperature should be less than or equal to the hot water temperature error continues...
   *************  **   ~~~   **   This error occurred 98415 total times;
   *************  **   ~~~   **   during Warmup 0 times;
   *************  **   ~~~   **   during Sizing 0 times.
   *************  **   ~~~   **   Max=8.268064  Min=8.339097E-005
   *************
   *************  ** Warning ** SimHVAC: Exceeding Maximum iterations for all HVAC loops, during ANNUAL continues
   *************  **   ~~~   **   This error occurred 5 total times;
   *************  **   ~~~   **   during Warmup 0 times;
   *************  **   ~~~   **   during Sizing 0 times.
   *************
   *************
   ************* ===== Final Error Summary =====
   ************* The following error categories occurred.  Consider correcting or noting.
   ************* Nominally Unused Constructions
   ************* ..The nominally unused constructions warning is provided to alert you to potential conditions that can cause
   ************* ..extra time during simulation. Each construction is calculated by the algorithm indicated in the HeatBalanceAlgorithm
   ************* ..object. You may remove the constructions indicated (when you use the DisplayExtraWarnings option).
   *************
   ************* EnergyPlus Warmup Error Summary. During Warmup: 1 Warning; 0 Severe Errors.
   ************* EnergyPlus Sizing Error Summary. During Sizing: 4 Warning; 0 Severe Errors.
   ************* EnergyPlus Completed Successfully-- 98451 Warning; 0 Severe Errors; Elapsed Time=00hr 04min 54.44sec
