Program Version,EnergyPlus, Version 22.2.0-c249759bad, YMD=2023.09.01 17:04,
   ************* Beginning Zone Sizing Calculations
   ** Warning ** ProcessScheduleInput: Schedule:Constant="ALWAYS ON DISCRETE", Schedule Type Limits Name="ONOFF" not found -- will not be validated
   ** Warning ** Foundation:Kiva="KIVA FOUNDATION", no Interior Horizontal Insulation Material Name defined
   **   ~~~   ** Interior Horizontal Insulation Depth will not be used.
   ** Warning ** CheckUsedConstructions: There are 15 nominally unused constructions in input.
   **   ~~~   ** Each Unused construction is shown.
   ************* Construction=INTERIOR FLOOR
   ************* Construction=INTERIOR WINDOW
   ************* Construction=EXTERIOR DOOR
   ************* Construction=INTERIOR DOOR
   ************* Construction=GABLE CONSTRUCTION
   ************* Construction=CRAWL_FLOOR
   ************* Construction=INSULATED PIPE
   ************* Construction=PLAIN PIPE
   ************* Construction=TDD PIPE
   ************* Construction=TDD DOME
   ************* Construction=TDD DIFFUSER
   ************* Construction=CRAWL WALL
   ************* Construction=CEILING-FLOOR-LAYER
   ************* Construction=SLAB CONSTRUCTION W FULL R10 INSULATION
   ************* Construction=SLAB CONSTRUCTION W FULL R5 INSULATION
   ** Warning ** GetDXCoils: Coil:Heating:DX:SingleSpeed="DX_HEATING_COIL" curve values
   **   ~~~   ** ... Defrost Energy Input Ratio Function of Temperature Curve Name = DEFROSTEIR output is not equal to 1.0 (+ or - 10%) at rated conditions.
   **   ~~~   ** ... Curve output at rated conditions = 0.152
   ************* Beginning System Sizing Calculations
   ************* Beginning Plant Sizing Calculations
   ** Warning ** SizeDXCoil Coil:Cooling:DX:SingleSpeed DX_COOLING_COIL
   **   ~~~   ** ...Gross Rated Total Cooling Capacity [W] will be limited by the maximum rated volume flow per rated total capacity ratio.
   **   ~~~   ** ...DX coil volume flow rate ( m3/s ) = 0.467941
   **   ~~~   ** ...Requested capacity ( W ) = 7713.160
   **   ~~~   ** ...Requested flow/capacity ratio ( m3/s/W ) = 6.066E-005
   **   ~~~   ** ...Maximum flow/capacity ratio ( m3/s/W ) = 6.041E-005
   **   ~~~   ** ...Adjusted capacity ( W ) = 7746.100
   ** Warning ** Coil:WaterHeating:AirToWaterHeatPump:Wrapped "HEAT PUMP WATER HEATER EVAPORATOR": Rated air volume flow rate per watt of rated total water heating capacity is out of range
   **   ~~~   ** Min Rated Vol Flow Per Watt=[4.027E-005], Rated Vol Flow Per Watt=[1.510E-004], Max Rated Vol Flow Per Watt=[8.056E-005]. See Input-Output Reference Manual for valid range.
   ************* SizeFan: : Potential issue with equipment sizing for Fan:OnOff HEAT PUMP WATER HEATER FAN
   **   ~~~   ** User-Specified Maximum Flow Rate [m3/s] = 0.22653
   **   ~~~   ** differs from Design Size Maximum Flow Rate [m3/s] = 7.55250E-002
   **   ~~~   ** This may, or may not, indicate mismatched component sizes.
   **   ~~~   ** Verify that the value entered is intended and is consistent with other components.
   ** Warning ** Water heater = WATER HEATER TANK:  Recovery Efficiency and Energy Factor could not be calculated during the test for standard ratings
   **   ~~~   ** Setpoint was never recovered and/or heater never turned on
   ** Warning ** Check input. Pump nominal power or motor efficiency is set to 0, for pump=MAINS PRESSURE
   ** Warning ** Output:Meter: invalid Key Name="ELECTRIC_RANGE:INTERIOREQUIPMENT:ELECTRICITY" - not found.
   ** Warning ** Output:Meter: invalid Key Name="ELECTRIC_DRYER:INTERIOREQUIPMENT:ELECTRICITY" - not found.
   ** Warning ** Output:Meter: invalid Key Name="HEATRECOVERY:ELECTRICITY" - not found.
   ** Warning ** Output:Meter: invalid Key Name="HEATING:NATURALGAS" - not found.
   ** Warning ** Output:Meter: invalid Key Name="WATERSYSTEMS:NATURALGAS" - not found.
   ** Warning ** Output:Meter: invalid Key Name="PROPANE:FACILITY" - not found.
   ** Warning ** Output:Meter: invalid Key Name="HEATING:PROPANE" - not found.
   ************* Testing Individual Branch Integrity
   ************* All Branches passed integrity testing
   ************* Testing Individual Supply Air Path Integrity
   ************* All Supply Air Paths passed integrity testing
   ************* Testing Individual Return Air Path Integrity
   ************* All Return Air Paths passed integrity testing
   ************* No node connection errors were found.
   ************* Beginning Simulation
   ** Warning ** AirflowNetwork::Solver::validate_distribution: Heat pump water heater is simulated along with an AirflowNetwork but is not included in the AirflowNetwork.
   ** Warning ** CalcEquipmentFlowRates: "TOTAL HOT WATER LOAD" - Target water temperature is greater than the hot water temperature by (2.68 C)
   **   ~~~   **  Environment=EXTREME_WINTER, at Simulation time=12/22 06:00 - 06:15
   **   ~~~   ** ...target water temperature     = 53.33 C
   **   ~~~   ** ...hot water temperature        = 50.65 C
   **   ~~~   ** ...Target water temperature should be less than or equal to the hot water temperature. Verify temperature setpoints and schedules.
   ** Warning ** SimHVAC: Maximum iterations (20) exceeded for all HVAC loops, at EXTREME_WINTER, 12/24 16:15 - 16:20
   **   ~~~   ** The solution for one or more of the Air Loop HVAC systems did not appear to converge
   **   ~~~   ** Air System Named = CENTRAL SYSTEM did not converge for mass flow rate
   **   ~~~   ** Check values should be zero. Most Recent values listed first.
   **   ~~~   ** Demand-to-Supply interface mass flow rate check value iteration history trace: 6.674837E-002,6.674837E-002,6.674837E-002,6.674837E-002,6.674837E-002,6.674837E-002,6.674837E-002,6.674837E-002,6.674837E-002,6.674837E-002,
   **   ~~~   ** Supply-to-demand interface deck 1 mass flow rate check value iteration history trace: 6.674837E-002,6.674837E-002,6.674837E-002,6.674837E-002,6.674837E-002,6.674837E-002,6.674837E-002,6.674837E-002,6.674837E-002,6.674837E-002,
   **   ~~~   ** Air System Named = CENTRAL SYSTEM did not converge for energy
   **   ~~~   ** Check values should be zero. Most Recent values listed first.
   **   ~~~   ** Demand-to-Supply interface energy check value iteration history trace: 1323.027953,1323.027953,1323.027953,1323.027953,1323.027953,1323.027953,1323.027953,1323.027953,1323.027953,1323.027953,
   **   ~~~   ** Supply-to-demand interface deck 1 energy check value iteration history trace: 2249.443953,2249.443953,2249.443953,2249.443953,2249.443953,2249.443953,2249.443952,2249.443952,2249.443952,2249.443952,
   ** Warning ** SimHVAC: Maximum iterations (20) exceeded for all HVAC loops, at EXTREME_WINTER, 12/24 20:45 - 20:50
   **   ~~~   ** The solution for one or more of the Air Loop HVAC systems did not appear to converge
   **   ~~~   ** Air System Named = CENTRAL SYSTEM did not converge for mass flow rate
   **   ~~~   ** Check values should be zero. Most Recent values listed first.
   **   ~~~   ** Demand-to-Supply interface mass flow rate check value iteration history trace: 6.810316E-002,6.810316E-002,6.810316E-002,6.810316E-002,6.810316E-002,6.810316E-002,6.810316E-002,6.810316E-002,6.810316E-002,6.810316E-002,
   **   ~~~   ** Supply-to-demand interface deck 1 mass flow rate check value iteration history trace: 6.810316E-002,6.810316E-002,6.810316E-002,6.810316E-002,6.810316E-002,6.810316E-002,6.810316E-002,6.810316E-002,6.810316E-002,6.810316E-002,
   **   ~~~   ** Air System Named = CENTRAL SYSTEM did not converge for energy
   **   ~~~   ** Check values should be zero. Most Recent values listed first.
   **   ~~~   ** Demand-to-Supply interface energy check value iteration history trace: 1347.842310,1347.842310,1347.842310,1347.842310,1347.842310,1347.842310,1347.842310,1347.842310,1347.842310,1347.842310,
   **   ~~~   ** Supply-to-demand interface deck 1 energy check value iteration history trace: 2249.194793,2249.194793,2249.194793,2249.194793,2249.194793,2249.194793,2249.194793,2249.194793,2249.194792,2249.194792,
   ** Warning ** SimHVAC: Maximum iterations (20) exceeded for all HVAC loops, at EXTREME_WINTER, 01/03 10:06 - 10:09
   **   ~~~   ** The solution for one or more of the Air Loop HVAC systems did not appear to converge
   **   ~~~   ** Air System Named = CENTRAL SYSTEM did not converge for mass flow rate
   **   ~~~   ** Check values should be zero. Most Recent values listed first.
   **   ~~~   ** Demand-to-Supply interface mass flow rate check value iteration history trace: 0.103724,0.103724,0.103724,0.103724,0.103724,0.103724,0.103724,0.103724,0.103724,0.103724,
   **   ~~~   ** Supply-to-demand interface deck 1 mass flow rate check value iteration history trace: 0.103724,0.103724,0.103724,0.103724,0.103724,0.103724,0.103724,0.103724,0.103724,0.103724,
   **   ~~~   ** Air System Named = CENTRAL SYSTEM did not converge for energy
   **   ~~~   ** Check values should be zero. Most Recent values listed first.
   **   ~~~   ** Demand-to-Supply interface energy check value iteration history trace: 2055.480130,2055.480130,2055.480130,2055.480129,2055.480129,2055.480129,2055.480129,2055.480129,2055.480129,2055.480129,
   **   ~~~   ** Supply-to-demand interface deck 1 energy check value iteration history trace: 3095.367517,3095.367516,3095.367516,3095.367516,3095.367516,3095.367516,3095.367515,3095.367515,3095.367515,3095.367515,
   ** Warning ** SimHVAC: Maximum iterations (20) exceeded for all HVAC loops, at EXTREME_WINTER, 01/04 11:15 - 11:30
   **   ~~~   ** The solution for one or more of the Air Loop HVAC systems did not appear to converge
   **   ~~~   ** Air System Named = CENTRAL SYSTEM did not converge for mass flow rate
   **   ~~~   ** Check values should be zero. Most Recent values listed first.
   **   ~~~   ** Demand-to-Supply interface mass flow rate check value iteration history trace: 6.893837E-002,6.893837E-002,6.893837E-002,6.893837E-002,6.893837E-002,6.893837E-002,6.893837E-002,6.893837E-002,6.893837E-002,6.893837E-002,
   **   ~~~   ** Supply-to-demand interface deck 1 mass flow rate check value iteration history trace: 6.893837E-002,6.893837E-002,6.893837E-002,6.893837E-002,6.893837E-002,6.893837E-002,6.893837E-002,6.893837E-002,6.893837E-002,6.893837E-002,
   **   ~~~   ** Air System Named = CENTRAL SYSTEM did not converge for energy
   **   ~~~   ** Check values should be zero. Most Recent values listed first.
   **   ~~~   ** Demand-to-Supply interface energy check value iteration history trace: 1366.155896,1366.155896,1366.155896,1366.155895,1366.155895,1366.155895,1366.155895,1366.155895,1366.155895,1366.155895,
   **   ~~~   ** Supply-to-demand interface deck 1 energy check value iteration history trace: 2344.738495,2344.738495,2344.738495,2344.738494,2344.738494,2344.738494,2344.738494,2344.738494,2344.738494,2344.738494,
   ** Warning ** SimHVAC: Maximum iterations (20) exceeded for all HVAC loops, at EXTREME_SUMMER, 07/04 05:20 - 05:25
   **   ~~~   ** The solution for one or more of the Air Loop HVAC systems did not appear to converge
   **   ~~~   ** Air System Named = CENTRAL SYSTEM did not converge for mass flow rate
   **   ~~~   ** Check values should be zero. Most Recent values listed first.
   **   ~~~   ** Demand-to-Supply interface mass flow rate check value iteration history trace: 0.320923,0.320923,0.320923,0.320923,0.320923,0.320923,0.320923,0.320923,0.320923,0.320923,
   **   ~~~   ** Supply-to-demand interface deck 1 mass flow rate check value iteration history trace: 0.320923,0.320923,0.320923,0.320923,0.320923,0.320923,0.320923,0.320923,0.320923,0.320923,
   **   ~~~   ** Air System Named = CENTRAL SYSTEM did not converge for energy
   **   ~~~   ** Check values should be zero. Most Recent values listed first.
   **   ~~~   ** Demand-to-Supply interface energy check value iteration history trace: 7664.683813,7664.683814,7664.683816,7664.683818,7664.683820,7664.683821,7664.683823,7664.683825,7664.683827,7664.683828,
   **   ~~~   ** Supply-to-demand interface deck 1 energy check value iteration history trace: 4070.169009,4070.169010,4070.169010,4070.169011,4070.169012,4070.169013,4070.169014,4070.169015,4070.169016,4070.169017,
   ** Warning ** SimHVAC: Maximum iterations (20) exceeded for all HVAC loops, at EXTREME_SUMMER, 07/05 04:15 - 04:30
   **   ~~~   ** The solution for one or more of the Air Loop HVAC systems did not appear to converge
   **   ~~~   ** Air System Named = CENTRAL SYSTEM did not converge for mass flow rate
   **   ~~~   ** Check values should be zero. Most Recent values listed first.
   **   ~~~   ** Demand-to-Supply interface mass flow rate check value iteration history trace: 8.920562E-002,8.920562E-002,8.920562E-002,8.920562E-002,8.920562E-002,8.920562E-002,8.920562E-002,8.920562E-002,8.920562E-002,8.920562E-002,
   **   ~~~   ** Supply-to-demand interface deck 1 mass flow rate check value iteration history trace: 8.920562E-002,8.920562E-002,8.920562E-002,8.920562E-002,8.920562E-002,8.920562E-002,8.920562E-002,8.920562E-002,8.920562E-002,8.920562E-002,
   **   ~~~   ** Air System Named = CENTRAL SYSTEM did not converge for energy
   **   ~~~   ** Check values should be zero. Most Recent values listed first.
   **   ~~~   ** Demand-to-Supply interface energy check value iteration history trace: 2216.733490,2216.733491,2216.733491,2216.733492,2216.733493,2216.733493,2216.733494,2216.733495,2216.733495,2216.733496,
   **   ~~~   ** Supply-to-demand interface deck 1 energy check value iteration history trace: 1159.985190,1159.985190,1159.985191,1159.985191,1159.985191,1159.985192,1159.985192,1159.985192,1159.985193,1159.985193,
   ** Warning ** SimHVAC: Maximum iterations (20) exceeded for all HVAC loops, at ANNUAL, 01/29 04:00 - 04:15
   **   ~~~   ** The solution for one or more of the Air Loop HVAC systems did not appear to converge
   **   ~~~   ** Air System Named = CENTRAL SYSTEM did not converge for mass flow rate
   **   ~~~   ** Check values should be zero. Most Recent values listed first.
   **   ~~~   ** Demand-to-Supply interface mass flow rate check value iteration history trace: 5.270121E-002,5.270121E-002,5.270121E-002,5.270121E-002,5.270121E-002,5.270121E-002,5.270121E-002,5.270121E-002,5.270121E-002,5.270121E-002,
   **   ~~~   ** Supply-to-demand interface deck 1 mass flow rate check value iteration history trace: 5.270121E-002,5.270121E-002,5.270121E-002,5.270121E-002,5.270121E-002,5.270121E-002,5.270121E-002,5.270121E-002,5.270121E-002,5.270121E-002,
   **   ~~~   ** Air System Named = CENTRAL SYSTEM did not converge for energy
   **   ~~~   ** Check values should be zero. Most Recent values listed first.
   **   ~~~   ** Demand-to-Supply interface energy check value iteration history trace: 985.267494,985.267493,985.267493,985.267493,985.267493,985.267493,985.267493,985.267493,985.267493,985.267493,
   **   ~~~   ** Supply-to-demand interface deck 1 energy check value iteration history trace: 1676.847174,1676.847174,1676.847174,1676.847174,1676.847173,1676.847173,1676.847173,1676.847173,1676.847173,1676.847173,
   ** Warning ** SimHVAC: Maximum iterations (20) exceeded for all HVAC loops, at ANNUAL, 01/31 08:30 - 08:45
   **   ~~~   ** The solution for one or more of the Air Loop HVAC systems did not appear to converge
   **   ~~~   ** Air System Named = CENTRAL SYSTEM did not converge for mass flow rate
   **   ~~~   ** Check values should be zero. Most Recent values listed first.
   **   ~~~   ** Demand-to-Supply interface mass flow rate check value iteration history trace: 6.842656E-002,6.842656E-002,6.842656E-002,6.842656E-002,6.842656E-002,6.842656E-002,6.842656E-002,6.842656E-002,6.842656E-002,6.842656E-002,
   **   ~~~   ** Supply-to-demand interface deck 1 mass flow rate check value iteration history trace: 6.842656E-002,6.842656E-002,6.842656E-002,6.842656E-002,6.842656E-002,6.842656E-002,6.842656E-002,6.842656E-002,6.842656E-002,6.842656E-002,
   **   ~~~   ** Air System Named = CENTRAL SYSTEM did not converge for energy
   **   ~~~   ** Check values should be zero. Most Recent values listed first.
   **   ~~~   ** Demand-to-Supply interface energy check value iteration history trace: 1353.595427,1353.595426,1353.595426,1353.595426,1353.595426,1353.595426,1353.595426,1353.595426,1353.595426,1353.595426,
   **   ~~~   ** Supply-to-demand interface deck 1 energy check value iteration history trace: 2374.882805,2374.882805,2374.882805,2374.882805,2374.882805,2374.882804,2374.882804,2374.882804,2374.882804,2374.882804,
   ** Warning ** SimHVAC: Maximum iterations (20) exceeded for all HVAC loops, at ANNUAL, 03/10 07:30 - 07:45
   **   ~~~   ** The solution for one or more of the Air Loop HVAC systems did not appear to converge
   **   ~~~   ** Air System Named = CENTRAL SYSTEM did not converge for mass flow rate
   **   ~~~   ** Check values should be zero. Most Recent values listed first.
   **   ~~~   ** Demand-to-Supply interface mass flow rate check value iteration history trace: 7.250396E-002,7.250396E-002,7.250396E-002,7.250396E-002,7.250396E-002,7.250396E-002,7.250396E-002,7.250396E-002,7.250396E-002,7.250396E-002,
   **   ~~~   ** Supply-to-demand interface deck 1 mass flow rate check value iteration history trace: 7.250396E-002,7.250396E-002,7.250396E-002,7.250396E-002,7.250396E-002,7.250396E-002,7.250396E-002,7.250396E-002,7.250396E-002,7.250396E-002,
   **   ~~~   ** Air System Named = CENTRAL SYSTEM did not converge for energy
   **   ~~~   ** Check values should be zero. Most Recent values listed first.
   **   ~~~   ** Demand-to-Supply interface energy check value iteration history trace: 1436.546292,1436.546292,1436.546292,1436.546292,1436.546292,1436.546292,1436.546292,1436.546292,1436.546292,1436.546292,
   **   ~~~   ** Supply-to-demand interface deck 1 energy check value iteration history trace: 2397.636103,2397.636103,2397.636103,2397.636102,2397.636102,2397.636102,2397.636102,2397.636102,2397.636102,2397.636102,
   ** Warning ** SimHVAC: Maximum iterations (20) exceeded for all HVAC loops, at ANNUAL, 04/01 10:45 - 11:00
   **   ~~~   ** The solution for one or more of the Air Loop HVAC systems did not appear to converge
   **   ~~~   ** Air System Named = CENTRAL SYSTEM did not converge for mass flow rate
   **   ~~~   ** Check values should be zero. Most Recent values listed first.
   **   ~~~   ** Demand-to-Supply interface mass flow rate check value iteration history trace: 5.858090E-002,5.858090E-002,5.858090E-002,5.858090E-002,5.858090E-002,5.858090E-002,5.858090E-002,5.858090E-002,5.858090E-002,5.858090E-002,
   **   ~~~   ** Supply-to-demand interface deck 1 mass flow rate check value iteration history trace: 5.858090E-002,5.858090E-002,5.858090E-002,5.858090E-002,5.858090E-002,5.858090E-002,5.858090E-002,5.858090E-002,5.858090E-002,5.858090E-002,
   **   ~~~   ** Air System Named = CENTRAL SYSTEM did not converge for energy
   **   ~~~   ** Check values should be zero. Most Recent values listed first.
   **   ~~~   ** Demand-to-Supply interface energy check value iteration history trace: 1162.297048,1162.297048,1162.297048,1162.297048,1162.297048,1162.297047,1162.297047,1162.297047,1162.297047,1162.297047,
   **   ~~~   ** Supply-to-demand interface deck 1 energy check value iteration history trace: 2000.897560,2000.897559,2000.897559,2000.897559,2000.897559,2000.897559,2000.897559,2000.897559,2000.897559,2000.897559,
   ** Warning ** SimHVAC: Maximum iterations (20) exceeded for all HVAC loops, at ANNUAL, 04/12 07:30 - 07:38
   **   ~~~   ** The solution for one or more of the Air Loop HVAC systems did not appear to converge
   **   ~~~   ** Air System Named = CENTRAL SYSTEM did not converge for mass flow rate
   **   ~~~   ** Check values should be zero. Most Recent values listed first.
   **   ~~~   ** Demand-to-Supply interface mass flow rate check value iteration history trace: 5.718278E-002,5.718278E-002,5.718278E-002,5.718278E-002,5.718278E-002,5.718278E-002,5.718278E-002,5.718278E-002,5.718278E-002,5.718278E-002,
   **   ~~~   ** Supply-to-demand interface deck 1 mass flow rate check value iteration history trace: 5.718278E-002,5.718278E-002,5.718278E-002,5.718278E-002,5.718278E-002,5.718278E-002,5.718278E-002,5.718278E-002,5.718278E-002,5.718278E-002,
   **   ~~~   ** Air System Named = CENTRAL SYSTEM did not converge for energy
   **   ~~~   ** Check values should be zero. Most Recent values listed first.
   **   ~~~   ** Demand-to-Supply interface energy check value iteration history trace: 1129.781657,1129.781657,1129.781657,1129.781657,1129.781657,1129.781657,1129.781657,1129.781657,1129.781657,1129.781657,
   **   ~~~   ** Supply-to-demand interface deck 1 energy check value iteration history trace: 1987.054284,1987.054284,1987.054284,1987.054284,1987.054284,1987.054284,1987.054284,1987.054284,1987.054284,1987.054284,
   ** Warning ** SimHVAC: Maximum iterations (20) exceeded for all HVAC loops, at ANNUAL, 04/29 09:17 - 09:20
   **   ~~~   ** The solution for one or more of the Air Loop HVAC systems did not appear to converge
   **   ~~~   ** Air System Named = CENTRAL SYSTEM did not converge for mass flow rate
   **   ~~~   ** Check values should be zero. Most Recent values listed first.
   **   ~~~   ** Demand-to-Supply interface mass flow rate check value iteration history trace: 0.120268,0.120268,0.120268,0.120268,0.120268,0.120268,0.120268,0.120268,0.120268,0.120268,
   **   ~~~   ** Supply-to-demand interface deck 1 mass flow rate check value iteration history trace: 0.120268,0.120268,0.120268,0.120268,0.120268,0.120268,0.120268,0.120268,0.120268,0.120268,
   **   ~~~   ** Air System Named = CENTRAL SYSTEM did not converge for energy
   **   ~~~   ** Check values should be zero. Most Recent values listed first.
   **   ~~~   ** Demand-to-Supply interface energy check value iteration history trace: 2837.597320,2837.597320,2837.597320,2837.597321,2837.597321,2837.597321,2837.597321,2837.597321,2837.597322,2837.597322,
   **   ~~~   ** Supply-to-demand interface deck 1 energy check value iteration history trace: 1345.923977,1345.923977,1345.923977,1345.923977,1345.923977,1345.923977,1345.923978,1345.923978,1345.923978,1345.923978,
   ** Warning ** SimHVAC: Maximum iterations (20) exceeded for all HVAC loops, at ANNUAL, 04/29 09:36 - 09:39
   **   ~~~   ** The solution for one or more of the Air Loop HVAC systems did not appear to converge
   **   ~~~   ** Air System Named = CENTRAL SYSTEM did not converge for mass flow rate
   **   ~~~   ** Check values should be zero. Most Recent values listed first.
   **   ~~~   ** Demand-to-Supply interface mass flow rate check value iteration history trace: 0.173099,0.173099,0.173099,0.173099,0.173099,0.173099,0.173099,0.173099,0.173099,0.173099,
   **   ~~~   ** Supply-to-demand interface deck 1 mass flow rate check value iteration history trace: 0.173099,0.173099,0.173099,0.173099,0.173099,0.173099,0.173099,0.173099,0.173099,0.173099,
   **   ~~~   ** Air System Named = CENTRAL SYSTEM did not converge for energy
   **   ~~~   ** Check values should be zero. Most Recent values listed first.
   **   ~~~   ** Demand-to-Supply interface energy check value iteration history trace: 4097.866463,4097.866464,4097.866464,4097.866464,4097.866464,4097.866465,4097.866465,4097.866465,4097.866465,4097.866466,
   **   ~~~   ** Supply-to-demand interface deck 1 energy check value iteration history trace: 1944.432402,1944.432402,1944.432402,1944.432402,1944.432402,1944.432402,1944.432403,1944.432403,1944.432403,1944.432403,
   ** Warning ** SimHVAC: Maximum iterations (20) exceeded for all HVAC loops, at ANNUAL, 11/05 03:30 - 03:45
   **   ~~~   ** The solution for one or more of the Air Loop HVAC systems did not appear to converge
   **   ~~~   ** Air System Named = CENTRAL SYSTEM did not converge for mass flow rate
   **   ~~~   ** Check values should be zero. Most Recent values listed first.
   **   ~~~   ** Demand-to-Supply interface mass flow rate check value iteration history trace: 5.055176E-002,5.055176E-002,5.055176E-002,5.055176E-002,5.055176E-002,5.055176E-002,5.055176E-002,5.055176E-002,5.055176E-002,5.055176E-002,
   **   ~~~   ** Supply-to-demand interface deck 1 mass flow rate check value iteration history trace: 5.055176E-002,5.055176E-002,5.055176E-002,5.055176E-002,5.055176E-002,5.055176E-002,5.055176E-002,5.055176E-002,5.055176E-002,5.055176E-002,
   **   ~~~   ** Air System Named = CENTRAL SYSTEM did not converge for energy
   **   ~~~   ** Check values should be zero. Most Recent values listed first.
   **   ~~~   ** Demand-to-Supply interface energy check value iteration history trace: 942.042947,942.042947,942.042947,942.042947,942.042947,942.042947,942.042947,942.042947,942.042947,942.042947,
   **   ~~~   ** Supply-to-demand interface deck 1 energy check value iteration history trace: 1671.260982,1671.260982,1671.260982,1671.260982,1671.260982,1671.260982,1671.260982,1671.260982,1671.260982,1671.260982,
   ************* Simulation Error Summary *************
   ** Warning ** The following Report Variables were requested but not generated -- check.rdd file
   **   ~~~   ** Either the IDF did not contain these elements, the variable name is misspelled,
   **   ~~~   ** or the requested variable is an advanced output which requires Output : Diagnostics, DisplayAdvancedReportVariables;
   ************* Key=*, VarName=BASEBOARD TOTAL HEATING ENERGY, Frequency=
   ************* Key=*, VarName=WATER HEATER NATURALGAS ENERGY, Frequency=
   ************* Key=*, VarName=COOLING COIL TOTAL HEATING ENERGY, Frequency=
   ************* There are 34 unused schedules in input.
   ************* There are 388 unused week schedules in input.
   ************* There are 396 unused day schedules in input.
   ************* Use Output:Diagnostics,DisplayUnusedSchedules; to see them.
   *************
   ************* ===== Recurring Error Summary =====
   ************* The following recurring error messages occurred.
   *************
   *************  ** Warning ** "TOTAL HOT WATER LOAD" - Target water temperature should be less than or equal to the hot water temperature error continues...
   *************  **   ~~~   **   This error occurred 165119 total times;
   *************  **   ~~~   **   during Warmup 0 times;
   *************  **   ~~~   **   during Sizing 0 times.
   *************  **   ~~~   **   Max=8.841674  Min=5.583043E-004
   *************
   *************  ** Warning ** SimHVAC: Exceeding Maximum iterations for all HVAC loops, during ANNUAL continues
   *************  **   ~~~   **   This error occurred 3 total times;
   *************  **   ~~~   **   during Warmup 0 times;
   *************  **   ~~~   **   during Sizing 0 times.
   *************
   *************
   ************* ===== Final Error Summary =====
   ************* The following error categories occurred.  Consider correcting or noting.
   ************* Nominally Unused Constructions
   ************* ..The nominally unused constructions warning is provided to alert you to potential conditions that can cause
   ************* ..extra time during simulation. Each construction is calculated by the algorithm indicated in the HeatBalanceAlgorithm
   ************* ..object. You may remove the constructions indicated (when you use the DisplayExtraWarnings option).
   *************
   ************* EnergyPlus Warmup Error Summary. During Warmup: 1 Warning; 0 Severe Errors.
   ************* EnergyPlus Sizing Error Summary. During Sizing: 4 Warning; 0 Severe Errors.
   ************* EnergyPlus Completed Successfully-- 165154 Warning; 0 Severe Errors; Elapsed Time=00hr 06min 41.66sec
