Program Version,EnergyPlus, Version 22.2.0-c249759bad, YMD=2023.08.31 12:58,
   ************* Beginning Zone Sizing Calculations
   ** Warning ** ProcessScheduleInput: Schedule:Constant="ALWAYS ON DISCRETE", Schedule Type Limits Name="ONOFF" not found -- will not be validated
   ** Warning ** Foundation:Kiva="KIVA FOUNDATION", no Interior Horizontal Insulation Material Name defined
   **   ~~~   ** Interior Horizontal Insulation Depth will not be used.
   ** Warning ** CheckUsedConstructions: There are 15 nominally unused constructions in input.
   **   ~~~   ** Each Unused construction is shown.
   ************* Construction=INTERIOR FLOOR
   ************* Construction=INTERIOR WINDOW
   ************* Construction=EXTERIOR DOOR
   ************* Construction=INTERIOR DOOR
   ************* Construction=GABLE CONSTRUCTION
   ************* Construction=CRAWL_FLOOR
   ************* Construction=INSULATED PIPE
   ************* Construction=PLAIN PIPE
   ************* Construction=TDD PIPE
   ************* Construction=TDD DOME
   ************* Construction=TDD DIFFUSER
   ************* Construction=CRAWL WALL
   ************* Construction=CEILING-FLOOR-LAYER
   ************* Construction=SLAB CONSTRUCTION W FULL R10 INSULATION
   ************* Construction=SLAB CONSTRUCTION W FULL R5 INSULATION
   ** Warning ** GetDXCoils: Coil:Heating:DX:SingleSpeed="DX_HEATING_COIL" curve values
   **   ~~~   ** ... Defrost Energy Input Ratio Function of Temperature Curve Name = DEFROSTEIR output is not equal to 1.0 (+ or - 10%) at rated conditions.
   **   ~~~   ** ... Curve output at rated conditions = 0.152
   ************* Beginning System Sizing Calculations
   ************* Beginning Plant Sizing Calculations
   ** Warning ** SizeDXCoil Coil:Cooling:DX:SingleSpeed DX_COOLING_COIL
   **   ~~~   ** ...Gross Rated Total Cooling Capacity [W] will be limited by the maximum rated volume flow per rated total capacity ratio.
   **   ~~~   ** ...DX coil volume flow rate ( m3/s ) = 0.336008
   **   ~~~   ** ...Requested capacity ( W ) = 4871.283
   **   ~~~   ** ...Requested flow/capacity ratio ( m3/s/W ) = 6.897E-005
   **   ~~~   ** ...Maximum flow/capacity ratio ( m3/s/W ) = 6.041E-005
   **   ~~~   ** ...Adjusted capacity ( W ) = 5562.138
   ** Warning ** Coil:WaterHeating:AirToWaterHeatPump:Wrapped "HEAT PUMP WATER HEATER EVAPORATOR": Rated air volume flow rate per watt of rated total water heating capacity is out of range
   **   ~~~   ** Min Rated Vol Flow Per Watt=[4.027E-005], Rated Vol Flow Per Watt=[1.386E-004], Max Rated Vol Flow Per Watt=[8.056E-005]. See Input-Output Reference Manual for valid range.
   ** Warning ** Water heater = WATER HEATER TANK:  Recovery Efficiency and Energy Factor could not be calculated during the test for standard ratings
   **   ~~~   ** Setpoint was never recovered and/or heater never turned on
   ** Warning ** Check input. Pump nominal power or motor efficiency is set to 0, for pump=MAINS PRESSURE
   ** Warning ** Output:Meter: invalid Key Name="ELECTRIC_RANGE:INTERIOREQUIPMENT:ELECTRICITY" - not found.
   ** Warning ** Output:Meter: invalid Key Name="ELECTRIC_DRYER:INTERIOREQUIPMENT:ELECTRICITY" - not found.
   ** Warning ** Output:Meter: invalid Key Name="HEATRECOVERY:ELECTRICITY" - not found.
   ** Warning ** Output:Meter: invalid Key Name="HEATING:NATURALGAS" - not found.
   ** Warning ** Output:Meter: invalid Key Name="WATERSYSTEMS:NATURALGAS" - not found.
   ** Warning ** Output:Meter: invalid Key Name="PROPANE:FACILITY" - not found.
   ** Warning ** Output:Meter: invalid Key Name="HEATING:PROPANE" - not found.
   ************* Testing Individual Branch Integrity
   ************* All Branches passed integrity testing
   ************* Testing Individual Supply Air Path Integrity
   ************* All Supply Air Paths passed integrity testing
   ************* Testing Individual Return Air Path Integrity
   ************* All Return Air Paths passed integrity testing
   ************* No node connection errors were found.
   ************* Beginning Simulation
   ** Warning ** AirflowNetwork::Solver::validate_distribution: Heat pump water heater is simulated along with an AirflowNetwork but is not included in the AirflowNetwork.
   ** Warning ** CalcEquipmentFlowRates: "TOTAL HOT WATER LOAD" - Target water temperature is greater than the hot water temperature by (0.20 C)
   **   ~~~   **  Environment=EXTREME_WINTER, at Simulation time=01/01 06:45 - 07:00
   **   ~~~   ** ...target water temperature     = 53.33 C
   **   ~~~   ** ...hot water temperature        = 53.13 C
   **   ~~~   ** ...Target water temperature should be less than or equal to the hot water temperature. Verify temperature setpoints and schedules.
   ** Warning ** SimHVAC: Maximum iterations (20) exceeded for all HVAC loops, at ANNUAL, 01/19 12:23 - 12:30
   **   ~~~   ** The solution for one or more of the Air Loop HVAC systems did not appear to converge
   **   ~~~   ** Air System Named = CENTRAL SYSTEM did not converge for mass flow rate
   **   ~~~   ** Check values should be zero. Most Recent values listed first.
   **   ~~~   ** Demand-to-Supply interface mass flow rate check value iteration history trace: 7.827158E-002,7.827158E-002,7.827158E-002,7.827158E-002,7.827158E-002,7.827158E-002,7.827158E-002,7.827158E-002,7.827158E-002,7.827158E-002,
   **   ~~~   ** Supply-to-demand interface deck 1 mass flow rate check value iteration history trace: 7.827158E-002,7.827158E-002,7.827158E-002,7.827158E-002,7.827158E-002,7.827158E-002,7.827158E-002,7.827158E-002,7.827158E-002,7.827158E-002,
   **   ~~~   ** Air System Named = CENTRAL SYSTEM did not converge for energy
   **   ~~~   ** Check values should be zero. Most Recent values listed first.
   **   ~~~   ** Demand-to-Supply interface energy check value iteration history trace: 1544.457002,1544.457001,1544.456999,1544.456998,1544.456997,1544.456995,1544.456994,1544.456993,1544.456992,1544.456990,
   **   ~~~   ** Supply-to-demand interface deck 1 energy check value iteration history trace: 2575.371981,2575.371978,2575.371976,2575.371974,2575.371972,2575.371970,2575.371968,2575.371966,2575.371964,2575.371962,
   ** Warning ** SimHVAC: Maximum iterations (20) exceeded for all HVAC loops, at ANNUAL, 03/05 14:15 - 14:22
   **   ~~~   ** The solution for one or more of the Air Loop HVAC systems did not appear to converge
   **   ~~~   ** Air System Named = CENTRAL SYSTEM did not converge for mass flow rate
   **   ~~~   ** Check values should be zero. Most Recent values listed first.
   **   ~~~   ** Demand-to-Supply interface mass flow rate check value iteration history trace: 7.354986E-002,7.354986E-002,7.354986E-002,7.354986E-002,7.354986E-002,7.354986E-002,7.354986E-002,7.354986E-002,7.354986E-002,7.354986E-002,
   **   ~~~   ** Supply-to-demand interface deck 1 mass flow rate check value iteration history trace: 7.354986E-002,7.354986E-002,7.354986E-002,7.354986E-002,7.354986E-002,7.354986E-002,7.354986E-002,7.354986E-002,7.354986E-002,7.354986E-002,
   **   ~~~   ** Air System Named = CENTRAL SYSTEM did not converge for energy
   **   ~~~   ** Check values should be zero. Most Recent values listed first.
   **   ~~~   ** Demand-to-Supply interface energy check value iteration history trace: 1458.958199,1458.958198,1458.958197,1458.958196,1458.958195,1458.958194,1458.958194,1458.958193,1458.958192,1458.958191,
   **   ~~~   ** Supply-to-demand interface deck 1 energy check value iteration history trace: 2526.012181,2526.012179,2526.012178,2526.012176,2526.012175,2526.012174,2526.012172,2526.012171,2526.012169,2526.012168,
   ** Warning ** SimHVAC: Maximum iterations (20) exceeded for all HVAC loops, at ANNUAL, 04/14 08:20 - 08:25
   **   ~~~   ** The solution for one or more of the Air Loop HVAC systems did not appear to converge
   **   ~~~   ** Air System Named = CENTRAL SYSTEM did not converge for mass flow rate
   **   ~~~   ** Check values should be zero. Most Recent values listed first.
   **   ~~~   ** Demand-to-Supply interface mass flow rate check value iteration history trace: 8.494987E-002,8.494987E-002,8.494987E-002,8.494987E-002,8.494987E-002,8.494987E-002,8.494987E-002,8.494987E-002,8.494987E-002,8.494987E-002,
   **   ~~~   ** Supply-to-demand interface deck 1 mass flow rate check value iteration history trace: 8.494987E-002,8.494987E-002,8.494987E-002,8.494987E-002,8.494987E-002,8.494987E-002,8.494987E-002,8.494987E-002,8.494987E-002,8.494987E-002,
   **   ~~~   ** Air System Named = CENTRAL SYSTEM did not converge for energy
   **   ~~~   ** Check values should be zero. Most Recent values listed first.
   **   ~~~   ** Demand-to-Supply interface energy check value iteration history trace: 1683.781264,1683.781262,1683.781260,1683.781258,1683.781256,1683.781254,1683.781252,1683.781249,1683.781247,1683.781245,
   **   ~~~   ** Supply-to-demand interface deck 1 energy check value iteration history trace: 2881.390728,2881.390724,2881.390721,2881.390717,2881.390714,2881.390710,2881.390707,2881.390703,2881.390700,2881.390696,
   ** Warning ** SimHVAC: Maximum iterations (20) exceeded for all HVAC loops, at ANNUAL, 04/20 12:53 - 13:00
   **   ~~~   ** The solution for one or more of the Air Loop HVAC systems did not appear to converge
   **   ~~~   ** Air System Named = CENTRAL SYSTEM did not converge for mass flow rate
   **   ~~~   ** Check values should be zero. Most Recent values listed first.
   **   ~~~   ** Demand-to-Supply interface mass flow rate check value iteration history trace: 3.597707E-002,3.597707E-002,3.597707E-002,3.597707E-002,3.597707E-002,3.597707E-002,3.597707E-002,3.597707E-002,3.597707E-002,3.597707E-002,
   **   ~~~   ** Supply-to-demand interface deck 1 mass flow rate check value iteration history trace: 3.597707E-002,3.597707E-002,3.597707E-002,3.597707E-002,3.597707E-002,3.597707E-002,3.597707E-002,3.597707E-002,3.597707E-002,3.597707E-002,
   **   ~~~   ** Air System Named = CENTRAL SYSTEM did not converge for energy
   **   ~~~   ** Check values should be zero. Most Recent values listed first.
   **   ~~~   ** Demand-to-Supply interface energy check value iteration history trace: 707.056941,707.056941,707.056940,707.056940,707.056940,707.056939,707.056939,707.056938,707.056938,707.056938,
   **   ~~~   ** Supply-to-demand interface deck 1 energy check value iteration history trace: 1260.487197,1260.487196,1260.487195,1260.487195,1260.487194,1260.487193,1260.487193,1260.487192,1260.487191,1260.487191,
   ** Warning ** SimHVAC: Maximum iterations (20) exceeded for all HVAC loops, at ANNUAL, 04/26 10:15 - 10:30
   **   ~~~   ** The solution for one or more of the Air Loop HVAC systems did not appear to converge
   **   ~~~   ** Air System Named = CENTRAL SYSTEM did not converge for mass flow rate
   **   ~~~   ** Check values should be zero. Most Recent values listed first.
   **   ~~~   ** Demand-to-Supply interface mass flow rate check value iteration history trace: 5.795593E-002,5.795593E-002,5.795593E-002,5.795593E-002,5.795593E-002,5.795593E-002,5.795593E-002,5.795593E-002,5.795593E-002,5.795593E-002,
   **   ~~~   ** Supply-to-demand interface deck 1 mass flow rate check value iteration history trace: 5.795593E-002,5.795593E-002,5.795593E-002,5.795593E-002,5.795593E-002,5.795593E-002,5.795593E-002,5.795593E-002,5.795593E-002,5.795593E-002,
   **   ~~~   ** Air System Named = CENTRAL SYSTEM did not converge for energy
   **   ~~~   ** Check values should be zero. Most Recent values listed first.
   **   ~~~   ** Demand-to-Supply interface energy check value iteration history trace: 1148.451512,1148.451511,1148.451511,1148.451510,1148.451509,1148.451508,1148.451508,1148.451507,1148.451506,1148.451505,
   **   ~~~   ** Supply-to-demand interface deck 1 energy check value iteration history trace: 2069.394704,2069.394703,2069.394702,2069.394700,2069.394699,2069.394698,2069.394696,2069.394695,2069.394694,2069.394692,
   ** Warning ** SimHVAC: Maximum iterations (20) exceeded for all HVAC loops, at ANNUAL, 04/26 10:15 - 10:22
   **   ~~~   ** The solution for one or more of the Air Loop HVAC systems did not appear to converge
   **   ~~~   ** Air System Named = CENTRAL SYSTEM did not converge for mass flow rate
   **   ~~~   ** Check values should be zero. Most Recent values listed first.
   **   ~~~   ** Demand-to-Supply interface mass flow rate check value iteration history trace: 5.819379E-002,5.819379E-002,5.819379E-002,5.819379E-002,5.819379E-002,5.819379E-002,5.819379E-002,5.819379E-002,5.819379E-002,5.819379E-002,
   **   ~~~   ** Supply-to-demand interface deck 1 mass flow rate check value iteration history trace: 5.819379E-002,5.819379E-002,5.819379E-002,5.819379E-002,5.819379E-002,5.819379E-002,5.819379E-002,5.819379E-002,5.819379E-002,5.819379E-002,
   **   ~~~   ** Air System Named = CENTRAL SYSTEM did not converge for energy
   **   ~~~   ** Check values should be zero. Most Recent values listed first.
   **   ~~~   ** Demand-to-Supply interface energy check value iteration history trace: 1153.156948,1153.156947,1153.156946,1153.156946,1153.156945,1153.156944,1153.156943,1153.156943,1153.156942,1153.156941,
   **   ~~~   ** Supply-to-demand interface deck 1 energy check value iteration history trace: 2077.858509,2077.858508,2077.858507,2077.858505,2077.858504,2077.858503,2077.858501,2077.858500,2077.858499,2077.858497,
   ** Warning ** SimHVAC: Maximum iterations (20) exceeded for all HVAC loops, at ANNUAL, 04/27 11:30 - 11:45
   **   ~~~   ** The solution for one or more of the Air Loop HVAC systems did not appear to converge
   **   ~~~   ** Air System Named = CENTRAL SYSTEM did not converge for mass flow rate
   **   ~~~   ** Check values should be zero. Most Recent values listed first.
   **   ~~~   ** Demand-to-Supply interface mass flow rate check value iteration history trace: 7.225568E-002,7.225568E-002,7.225568E-002,7.225568E-002,7.225568E-002,7.225568E-002,7.225568E-002,7.225568E-002,7.225568E-002,7.225568E-002,
   **   ~~~   ** Supply-to-demand interface deck 1 mass flow rate check value iteration history trace: 7.225568E-002,7.225568E-002,7.225568E-002,7.225568E-002,7.225568E-002,7.225568E-002,7.225568E-002,7.225568E-002,7.225568E-002,7.225568E-002,
   **   ~~~   ** Air System Named = CENTRAL SYSTEM did not converge for energy
   **   ~~~   ** Check values should be zero. Most Recent values listed first.
   **   ~~~   ** Demand-to-Supply interface energy check value iteration history trace: 1431.774227,1431.774226,1431.774224,1431.774222,1431.774220,1431.774218,1431.774216,1431.774214,1431.774212,1431.774210,
   **   ~~~   ** Supply-to-demand interface deck 1 energy check value iteration history trace: 2514.619543,2514.619540,2514.619537,2514.619533,2514.619530,2514.619527,2514.619523,2514.619520,2514.619517,2514.619513,
   ** Warning ** SimHVAC: Maximum iterations (20) exceeded for all HVAC loops, at ANNUAL, 05/03 07:30 - 07:45
   **   ~~~   ** The solution for one or more of the Air Loop HVAC systems did not appear to converge
   **   ~~~   ** Air System Named = CENTRAL SYSTEM did not converge for mass flow rate
   **   ~~~   ** Check values should be zero. Most Recent values listed first.
   **   ~~~   ** Demand-to-Supply interface mass flow rate check value iteration history trace: 7.540759E-002,7.540759E-002,7.540759E-002,7.540759E-002,7.540759E-002,7.540759E-002,7.540759E-002,7.540759E-002,7.540759E-002,7.540759E-002,
   **   ~~~   ** Supply-to-demand interface deck 1 mass flow rate check value iteration history trace: 7.540759E-002,7.540759E-002,7.540759E-002,7.540759E-002,7.540759E-002,7.540759E-002,7.540759E-002,7.540759E-002,7.540759E-002,7.540759E-002,
   **   ~~~   ** Air System Named = CENTRAL SYSTEM did not converge for energy
   **   ~~~   ** Check values should be zero. Most Recent values listed first.
   **   ~~~   ** Demand-to-Supply interface energy check value iteration history trace: 1492.988157,1492.988154,1492.988152,1492.988149,1492.988147,1492.988145,1492.988142,1492.988140,1492.988137,1492.988135,
   **   ~~~   ** Supply-to-demand interface deck 1 energy check value iteration history trace: 2601.476146,2601.476142,2601.476138,2601.476134,2601.476130,2601.476126,2601.476121,2601.476117,2601.476113,2601.476109,
   ** Warning ** SimHVAC: Maximum iterations (20) exceeded for all HVAC loops, at ANNUAL, 05/27 09:45 - 10:00
   **   ~~~   ** The solution for one or more of the Air Loop HVAC systems did not appear to converge
   **   ~~~   ** Air System Named = CENTRAL SYSTEM did not converge for mass flow rate
   **   ~~~   ** Check values should be zero. Most Recent values listed first.
   **   ~~~   ** Demand-to-Supply interface mass flow rate check value iteration history trace: 7.338715E-002,7.338715E-002,7.338715E-002,7.338715E-002,7.338715E-002,7.338715E-002,7.338715E-002,7.338715E-002,7.338715E-002,7.338715E-002,
   **   ~~~   ** Supply-to-demand interface deck 1 mass flow rate check value iteration history trace: 7.338715E-002,7.338715E-002,7.338715E-002,7.338715E-002,7.338715E-002,7.338715E-002,7.338715E-002,7.338715E-002,7.338715E-002,7.338715E-002,
   **   ~~~   ** Air System Named = CENTRAL SYSTEM did not converge for energy
   **   ~~~   ** Check values should be zero. Most Recent values listed first.
   **   ~~~   ** Demand-to-Supply interface energy check value iteration history trace: 1454.227262,1454.227261,1454.227260,1454.227259,1454.227258,1454.227257,1454.227256,1454.227255,1454.227254,1454.227252,
   **   ~~~   ** Supply-to-demand interface deck 1 energy check value iteration history trace: 2560.467278,2560.467276,2560.467274,2560.467272,2560.467270,2560.467268,2560.467266,2560.467264,2560.467262,2560.467260,
   ** Warning ** SimHVAC: Maximum iterations (20) exceeded for all HVAC loops, at ANNUAL, 06/17 10:51 - 10:54
   **   ~~~   ** The solution for one or more of the Air Loop HVAC systems did not appear to converge
   **   ~~~   ** Air System Named = CENTRAL SYSTEM did not converge for mass flow rate
   **   ~~~   ** Check values should be zero. Most Recent values listed first.
   **   ~~~   ** Demand-to-Supply interface mass flow rate check value iteration history trace: 6.726898E-002,6.726898E-002,6.726898E-002,6.726898E-002,6.726898E-002,6.726898E-002,6.726898E-002,6.726898E-002,6.726898E-002,6.726898E-002,
   **   ~~~   ** Supply-to-demand interface deck 1 mass flow rate check value iteration history trace: 6.726898E-002,6.726898E-002,6.726898E-002,6.726898E-002,6.726898E-002,6.726898E-002,6.726898E-002,6.726898E-002,6.726898E-002,6.726898E-002,
   **   ~~~   ** Air System Named = CENTRAL SYSTEM did not converge for energy
   **   ~~~   ** Check values should be zero. Most Recent values listed first.
   **   ~~~   ** Demand-to-Supply interface energy check value iteration history trace: 1326.388112,1326.388111,1326.388110,1326.388109,1326.388109,1326.388108,1326.388107,1326.388106,1326.388106,1326.388105,
   **   ~~~   ** Supply-to-demand interface deck 1 energy check value iteration history trace: 2384.335024,2384.335023,2384.335021,2384.335020,2384.335018,2384.335017,2384.335016,2384.335014,2384.335013,2384.335011,
   ** Warning ** SimHVAC: Maximum iterations (20) exceeded for all HVAC loops, at ANNUAL, 10/21 11:00 - 11:08
   **   ~~~   ** The solution for one or more of the Air Loop HVAC systems did not appear to converge
   **   ~~~   ** Air System Named = CENTRAL SYSTEM did not converge for mass flow rate
   **   ~~~   ** Check values should be zero. Most Recent values listed first.
   **   ~~~   ** Demand-to-Supply interface mass flow rate check value iteration history trace: 7.322439E-002,7.322439E-002,7.322439E-002,7.322439E-002,7.322439E-002,7.322439E-002,7.322439E-002,7.322439E-002,7.322439E-002,7.322439E-002,
   **   ~~~   ** Supply-to-demand interface deck 1 mass flow rate check value iteration history trace: 7.322439E-002,7.322439E-002,7.322439E-002,7.322439E-002,7.322439E-002,7.322439E-002,7.322439E-002,7.322439E-002,7.322439E-002,7.322439E-002,
   **   ~~~   ** Air System Named = CENTRAL SYSTEM did not converge for energy
   **   ~~~   ** Check values should be zero. Most Recent values listed first.
   **   ~~~   ** Demand-to-Supply interface energy check value iteration history trace: 1450.963178,1450.963176,1450.963175,1450.963174,1450.963173,1450.963171,1450.963170,1450.963169,1450.963168,1450.963166,
   **   ~~~   ** Supply-to-demand interface deck 1 energy check value iteration history trace: 2524.715531,2524.715529,2524.715527,2524.715524,2524.715522,2524.715520,2524.715518,2524.715515,2524.715513,2524.715511,
   ** Warning ** SimHVAC: Maximum iterations (20) exceeded for all HVAC loops, at ANNUAL, 10/21 11:45 - 12:00
   **   ~~~   ** The solution for one or more of the Air Loop HVAC systems did not appear to converge
   **   ~~~   ** Air System Named = CENTRAL SYSTEM did not converge for mass flow rate
   **   ~~~   ** Check values should be zero. Most Recent values listed first.
   **   ~~~   ** Demand-to-Supply interface mass flow rate check value iteration history trace: 6.669904E-002,6.669904E-002,6.669904E-002,6.669904E-002,6.669904E-002,6.669904E-002,6.669904E-002,6.669904E-002,6.669904E-002,6.669904E-002,
   **   ~~~   ** Supply-to-demand interface deck 1 mass flow rate check value iteration history trace: 6.669904E-002,6.669904E-002,6.669904E-002,6.669904E-002,6.669904E-002,6.669904E-002,6.669904E-002,6.669904E-002,6.669904E-002,6.669904E-002,
   **   ~~~   ** Air System Named = CENTRAL SYSTEM did not converge for energy
   **   ~~~   ** Check values should be zero. Most Recent values listed first.
   **   ~~~   ** Demand-to-Supply interface energy check value iteration history trace: 1319.868716,1319.868715,1319.868714,1319.868713,1319.868712,1319.868710,1319.868709,1319.868708,1319.868707,1319.868706,
   **   ~~~   ** Supply-to-demand interface deck 1 energy check value iteration history trace: 2326.404672,2326.404670,2326.404668,2326.404665,2326.404663,2326.404661,2326.404659,2326.404657,2326.404655,2326.404653,
   ** Warning ** SimHVAC: Maximum iterations (20) exceeded for all HVAC loops, at ANNUAL, 11/11 09:45 - 09:50
   **   ~~~   ** The solution for one or more of the Air Loop HVAC systems did not appear to converge
   **   ~~~   ** Air System Named = CENTRAL SYSTEM did not converge for mass flow rate
   **   ~~~   ** Check values should be zero. Most Recent values listed first.
   **   ~~~   ** Demand-to-Supply interface mass flow rate check value iteration history trace: 9.122574E-002,9.122574E-002,9.122574E-002,9.122574E-002,9.122574E-002,9.122574E-002,9.122574E-002,9.122574E-002,9.122574E-002,9.122574E-002,
   **   ~~~   ** Supply-to-demand interface deck 1 mass flow rate check value iteration history trace: 9.122574E-002,9.122574E-002,9.122574E-002,9.122574E-002,9.122574E-002,9.122574E-002,9.122574E-002,9.122574E-002,9.122574E-002,9.122574E-002,
   **   ~~~   ** Air System Named = CENTRAL SYSTEM did not converge for energy
   **   ~~~   ** Check values should be zero. Most Recent values listed first.
   **   ~~~   ** Demand-to-Supply interface energy check value iteration history trace: 1807.648467,1807.648465,1807.648463,1807.648461,1807.648459,1807.648457,1807.648455,1807.648453,1807.648451,1807.648449,
   **   ~~~   ** Supply-to-demand interface deck 1 energy check value iteration history trace: 3086.109922,3086.109918,3086.109915,3086.109911,3086.109907,3086.109904,3086.109900,3086.109897,3086.109893,3086.109890,
   ************* Simulation Error Summary *************
   ** Warning ** The following Report Variables were requested but not generated -- check.rdd file
   **   ~~~   ** Either the IDF did not contain these elements, the variable name is misspelled,
   **   ~~~   ** or the requested variable is an advanced output which requires Output : Diagnostics, DisplayAdvancedReportVariables;
   ************* Key=*, VarName=BASEBOARD TOTAL HEATING ENERGY, Frequency=
   ************* Key=*, VarName=WATER HEATER NATURALGAS ENERGY, Frequency=
   ************* Key=*, VarName=COOLING COIL TOTAL HEATING ENERGY, Frequency=
   ************* There are 34 unused schedules in input.
   ************* There are 388 unused week schedules in input.
   ************* There are 397 unused day schedules in input.
   ************* Use Output:Diagnostics,DisplayUnusedSchedules; to see them.
   *************
   ************* ===== Recurring Error Summary =====
   ************* The following recurring error messages occurred.
   *************
   *************  ** Warning ** "TOTAL HOT WATER LOAD" - Target water temperature should be less than or equal to the hot water temperature error continues...
   *************  **   ~~~   **   This error occurred 82937 total times;
   *************  **   ~~~   **   during Warmup 0 times;
   *************  **   ~~~   **   during Sizing 0 times.
   *************  **   ~~~   **   Max=10.577757  Min=1.663629E-004
   *************
   *************
   ************* ===== Final Error Summary =====
   ************* The following error categories occurred.  Consider correcting or noting.
   ************* Nominally Unused Constructions
   ************* ..The nominally unused constructions warning is provided to alert you to potential conditions that can cause
   ************* ..extra time during simulation. Each construction is calculated by the algorithm indicated in the HeatBalanceAlgorithm
   ************* ..object. You may remove the constructions indicated (when you use the DisplayExtraWarnings option).
   *************
   ************* EnergyPlus Warmup Error Summary. During Warmup: 1 Warning; 0 Severe Errors.
   ************* EnergyPlus Sizing Error Summary. During Sizing: 4 Warning; 0 Severe Errors.
   ************* EnergyPlus Completed Successfully-- 82968 Warning; 0 Severe Errors; Elapsed Time=00hr 04min 44.12sec
