Program Version,EnergyPlus, Version 22.2.0-c249759bad, YMD=2023.09.01 14:31,
   ** Warning ** Due to PerformancePrecisionTradeoffs Override Mode, the Number of TimeSteps has been changed to 1.
   ** Warning ** Due to PerformancePrecisionTradeoffs Override Mode, the ZoneAirHeatBalanceAlgorithm has been changed to EulerMethod.
   ** Warning ** Due to PerformancePrecisionTradeoffs Override Mode, the Minimum Number of Warmup Days has been changed to 1.
   ** Warning ** Due to PerformancePrecisionTradeoffs Override Mode, the Begin Environment Reset Mode has been changed to SuppressAllBeginEnvironmentResets.
   ** Warning ** Due to PerformancePrecisionTradeoffs Override Mode, the minimum System TimeSteps has been changed to 1 hr.
   ** Warning ** Due to PerformancePrecisionTradeoffs Override Mode, the saturated temperature will be calculated using cubic spline interpolations in replacement of PsychTsatFnPb .
   ** Warning ** Due to PerformancePrecisionTradeoffs Override Mode, internal variable MaxZoneTempDiff will be set to 1.0 .
   ** Warning ** PerformancePrecisionTradeoffs: Coil Direct Solution simulation is selected.
   ** Warning ** PerformancePrecisionTradeoffs: Carroll MRT radiant exchange method is selected.
   ** Warning ** Due to the use of the fast simulation mode, the time step for simulation and averaging window of sizing is overwritten to one hour. Original user inputs for averaging window and timestep are no longer used.
   ************* Beginning Zone Sizing Calculations
   ** Warning ** Foundation:Kiva="KIVA FOUNDATION", no Interior Horizontal Insulation Material Name defined
   **   ~~~   ** Interior Horizontal Insulation Depth will not be used.
   ** Warning ** CheckUsedConstructions: There are 15 nominally unused constructions in input.
   **   ~~~   ** Each Unused construction is shown.
   ************* Construction=INTERIOR FLOOR
   ************* Construction=INTERIOR WINDOW
   ************* Construction=EXTERIOR DOOR
   ************* Construction=INTERIOR DOOR
   ************* Construction=GABLE CONSTRUCTION
   ************* Construction=CRAWL_FLOOR
   ************* Construction=INSULATED PIPE
   ************* Construction=PLAIN PIPE
   ************* Construction=TDD PIPE
   ************* Construction=TDD DOME
   ************* Construction=TDD DIFFUSER
   ************* Construction=CRAWL WALL
   ************* Construction=CEILING-FLOOR-LAYER
   ************* Construction=SLAB CONSTRUCTION W FULL R10 INSULATION
   ************* Construction=SLAB CONSTRUCTION W FULL R5 INSULATION
   ** Severe  ** WaterHeater:Sizing, named WATER HEATER, design mode set to Peak Draw but needs a positive value for tank draw time
   ************* Beginning System Sizing Calculations
   ************* Beginning Plant Sizing Calculations
   ** Warning ** GetDXCoils: Coil:Heating:DX:SingleSpeed="DX_HEATING_COIL" curve values
   **   ~~~   ** ... Defrost Energy Input Ratio Function of Temperature Curve Name = DEFROSTEIR output is not equal to 1.0 (+ or - 10%) at rated conditions.
   **   ~~~   ** ... Curve output at rated conditions = 0.152
   ** Warning ** SizeDXCoil Coil:Cooling:DX:SingleSpeed DX_COOLING_COIL
   **   ~~~   ** ...Gross Rated Total Cooling Capacity [W] will be limited by the maximum rated volume flow per rated total capacity ratio.
   **   ~~~   ** ...DX coil volume flow rate ( m3/s ) = 0.449040
   **   ~~~   ** ...Requested capacity ( W ) = 7360.169
   **   ~~~   ** ...Requested flow/capacity ratio ( m3/s/W ) = 6.100E-005
   **   ~~~   ** ...Maximum flow/capacity ratio ( m3/s/W ) = 6.041E-005
   **   ~~~   ** ...Adjusted capacity ( W ) = 7433.208
   ** Warning ** Check input. Pump nominal power or motor efficiency is set to 0, for pump=MAINS PRESSURE
   ************* Testing Individual Branch Integrity
   ************* All Branches passed integrity testing
   ************* Testing Individual Supply Air Path Integrity
   ************* All Supply Air Paths passed integrity testing
   ************* Testing Individual Return Air Path Integrity
   ************* All Return Air Paths passed integrity testing
   ************* No node connection errors were found.
   ************* Beginning Simulation
   ** Warning ** CalcEquipmentFlowRates: "TOTAL HOT WATER LOAD" - Target water temperature is greater than the hot water temperature by (1.01 C)
   **   ~~~   **  Environment=EXTREME_WINTER, at Simulation time=01/13 06:00 - 07:00
   **   ~~~   ** ...target water temperature     = 53.33 C
   **   ~~~   ** ...hot water temperature        = 52.32 C
   **   ~~~   ** ...Target water temperature should be less than or equal to the hot water temperature. Verify temperature setpoints and schedules.
   ************* Simulation Error Summary *************
   ** Warning ** The following Report Variables were requested but not generated -- check.rdd file
   **   ~~~   ** Either the IDF did not contain these elements, the variable name is misspelled,
   **   ~~~   ** or the requested variable is an advanced output which requires Output : Diagnostics, DisplayAdvancedReportVariables;
   ************* Key=*, VarName=HEATING COIL NATURALGAS RATE, Frequency=Hourly
   ************* Key=*, VarName=HEATING COIL PROPANE RATE, Frequency=Hourly
   ************* There are 33 unused schedules in input.
   ************* There are 388 unused week schedules in input.
   ************* There are 396 unused day schedules in input.
   ************* Use Output:Diagnostics,DisplayUnusedSchedules; to see them.
   *************
   ************* ===== Recurring Error Summary =====
   ************* The following recurring error messages occurred.
   *************
   *************  ** Warning ** "TOTAL HOT WATER LOAD" - Target water temperature should be less than or equal to the hot water temperature error continues...
   *************  **   ~~~   **   This error occurred 791 total times;
   *************  **   ~~~   **   during Warmup 0 times;
   *************  **   ~~~   **   during Sizing 0 times.
   *************  **   ~~~   **   Max=1.456327  Min=0.491736
   *************
   *************
   ************* ===== Final Error Summary =====
   ************* The following error categories occurred.  Consider correcting or noting.
   ************* Nominally Unused Constructions
   ************* ..The nominally unused constructions warning is provided to alert you to potential conditions that can cause
   ************* ..extra time during simulation. Each construction is calculated by the algorithm indicated in the HeatBalanceAlgorithm
   ************* ..object. You may remove the constructions indicated (when you use the DisplayExtraWarnings option).
   *************
   ************* EnergyPlus Warmup Error Summary. During Warmup: 0 Warning; 0 Severe Errors.
   ************* EnergyPlus Sizing Error Summary. During Sizing: 3 Warning; 1 Severe Errors.
   ************* EnergyPlus Completed Successfully-- 808 Warning; 1 Severe Errors; Elapsed Time=00hr 00min  0.57sec
