Program Version,EnergyPlus, Version 22.2.0-c249759bad, YMD=2023.09.01 15:08,
   ************* Beginning Zone Sizing Calculations
   ** Warning ** ProcessScheduleInput: Schedule:Constant="ALWAYS ON DISCRETE", Schedule Type Limits Name="ONOFF" not found -- will not be validated
   ** Warning ** Foundation:Kiva="KIVA FOUNDATION", no Interior Horizontal Insulation Material Name defined
   **   ~~~   ** Interior Horizontal Insulation Depth will not be used.
   ** Warning ** CheckUsedConstructions: There are 15 nominally unused constructions in input.
   **   ~~~   ** Each Unused construction is shown.
   ************* Construction=INTERIOR FLOOR
   ************* Construction=INTERIOR WINDOW
   ************* Construction=EXTERIOR DOOR
   ************* Construction=INTERIOR DOOR
   ************* Construction=GABLE CONSTRUCTION
   ************* Construction=CRAWL_FLOOR
   ************* Construction=INSULATED PIPE
   ************* Construction=PLAIN PIPE
   ************* Construction=TDD PIPE
   ************* Construction=TDD DOME
   ************* Construction=TDD DIFFUSER
   ************* Construction=CRAWL WALL
   ************* Construction=CEILING-FLOOR-LAYER
   ************* Construction=SLAB CONSTRUCTION W FULL R10 INSULATION
   ************* Construction=SLAB CONSTRUCTION W FULL R5 INSULATION
   ** Warning ** GetDXCoils: Coil:Heating:DX:SingleSpeed="DX_HEATING_COIL" curve values
   **   ~~~   ** ... Defrost Energy Input Ratio Function of Temperature Curve Name = DEFROSTEIR output is not equal to 1.0 (+ or - 10%) at rated conditions.
   **   ~~~   ** ... Curve output at rated conditions = 0.152
   ************* Beginning System Sizing Calculations
   ************* Beginning Plant Sizing Calculations
   ** Warning ** SizeDXCoil Coil:Cooling:DX:SingleSpeed DX_COOLING_COIL
   **   ~~~   ** ...Gross Rated Total Cooling Capacity [W] will be limited by the maximum rated volume flow per rated total capacity ratio.
   **   ~~~   ** ...DX coil volume flow rate ( m3/s ) = 0.527883
   **   ~~~   ** ...Requested capacity ( W ) = 6573.835
   **   ~~~   ** ...Requested flow/capacity ratio ( m3/s/W ) = 8.030E-005
   **   ~~~   ** ...Maximum flow/capacity ratio ( m3/s/W ) = 6.041E-005
   **   ~~~   ** ...Adjusted capacity ( W ) = 8738.343
   ** Warning ** Coil:WaterHeating:AirToWaterHeatPump:Wrapped "HEAT PUMP WATER HEATER EVAPORATOR": Rated air volume flow rate per watt of rated total water heating capacity is out of range
   **   ~~~   ** Min Rated Vol Flow Per Watt=[4.027E-005], Rated Vol Flow Per Watt=[1.386E-004], Max Rated Vol Flow Per Watt=[8.056E-005]. See Input-Output Reference Manual for valid range.
   ** Warning ** Water heater = WATER HEATER TANK:  Recovery Efficiency and Energy Factor could not be calculated during the test for standard ratings
   **   ~~~   ** Setpoint was never recovered and/or heater never turned on
   ** Warning ** Check input. Pump nominal power or motor efficiency is set to 0, for pump=MAINS PRESSURE
   ** Warning ** Output:Meter: invalid Key Name="ELECTRIC_RANGE:INTERIOREQUIPMENT:ELECTRICITY" - not found.
   ** Warning ** Output:Meter: invalid Key Name="ELECTRIC_DRYER:INTERIOREQUIPMENT:ELECTRICITY" - not found.
   ** Warning ** Output:Meter: invalid Key Name="HEATRECOVERY:ELECTRICITY" - not found.
   ** Warning ** Output:Meter: invalid Key Name="HEATING:NATURALGAS" - not found.
   ** Warning ** Output:Meter: invalid Key Name="WATERSYSTEMS:NATURALGAS" - not found.
   ** Warning ** Output:Meter: invalid Key Name="PROPANE:FACILITY" - not found.
   ** Warning ** Output:Meter: invalid Key Name="HEATING:PROPANE" - not found.
   ************* Testing Individual Branch Integrity
   ************* All Branches passed integrity testing
   ************* Testing Individual Supply Air Path Integrity
   ************* All Supply Air Paths passed integrity testing
   ************* Testing Individual Return Air Path Integrity
   ************* All Return Air Paths passed integrity testing
   ************* No node connection errors were found.
   ************* Beginning Simulation
   ** Warning ** AirflowNetwork::Solver::validate_distribution: Heat pump water heater is simulated along with an AirflowNetwork but is not included in the AirflowNetwork.
   ** Warning ** CalcEquipmentFlowRates: "TOTAL HOT WATER LOAD" - Target water temperature is greater than the hot water temperature by (1.65 C)
   **   ~~~   **  Environment=EXTREME_WINTER, at Simulation time=12/22 06:00 - 06:15
   **   ~~~   ** ...target water temperature     = 53.33 C
   **   ~~~   ** ...hot water temperature        = 51.68 C
   **   ~~~   ** ...Target water temperature should be less than or equal to the hot water temperature. Verify temperature setpoints and schedules.
   ** Warning ** SimHVAC: Maximum iterations (20) exceeded for all HVAC loops, at EXTREME_WINTER, 01/03 11:45 - 12:00
   **   ~~~   ** The solution for one or more of the Air Loop HVAC systems did not appear to converge
   **   ~~~   ** Air System Named = CENTRAL SYSTEM did not converge for mass flow rate
   **   ~~~   ** Check values should be zero. Most Recent values listed first.
   **   ~~~   ** Demand-to-Supply interface mass flow rate check value iteration history trace: 5.417820E-002,5.417820E-002,5.417820E-002,5.417820E-002,5.417820E-002,5.417820E-002,5.417820E-002,5.417820E-002,5.417820E-002,5.417820E-002,
   **   ~~~   ** Supply-to-demand interface deck 1 mass flow rate check value iteration history trace: 5.417820E-002,5.417820E-002,5.417820E-002,5.417820E-002,5.417820E-002,5.417820E-002,5.417820E-002,5.417820E-002,5.417820E-002,5.417820E-002,
   **   ~~~   ** Air System Named = CENTRAL SYSTEM did not converge for energy
   **   ~~~   ** Check values should be zero. Most Recent values listed first.
   **   ~~~   ** Demand-to-Supply interface energy check value iteration history trace: 1073.642135,1073.642135,1073.642135,1073.642135,1073.642135,1073.642135,1073.642134,1073.642134,1073.642134,1073.642134,
   **   ~~~   ** Supply-to-demand interface deck 1 energy check value iteration history trace: 1840.648283,1840.648283,1840.648283,1840.648283,1840.648283,1840.648282,1840.648282,1840.648282,1840.648282,1840.648282,
   ** Warning ** SimHVAC: Maximum iterations (20) exceeded for all HVAC loops, at EXTREME_WINTER, 01/04 13:15 - 13:22
   **   ~~~   ** The solution for one or more of the Air Loop HVAC systems did not appear to converge
   **   ~~~   ** Air System Named = CENTRAL SYSTEM did not converge for mass flow rate
   **   ~~~   ** Check values should be zero. Most Recent values listed first.
   **   ~~~   ** Demand-to-Supply interface mass flow rate check value iteration history trace: 5.155700E-002,5.155700E-002,5.155700E-002,5.155700E-002,5.155700E-002,5.155700E-002,5.155700E-002,5.155700E-002,5.155700E-002,5.155700E-002,
   **   ~~~   ** Supply-to-demand interface deck 1 mass flow rate check value iteration history trace: 5.155700E-002,5.155700E-002,5.155700E-002,5.155700E-002,5.155700E-002,5.155700E-002,5.155700E-002,5.155700E-002,5.155700E-002,5.155700E-002,
   **   ~~~   ** Air System Named = CENTRAL SYSTEM did not converge for energy
   **   ~~~   ** Check values should be zero. Most Recent values listed first.
   **   ~~~   ** Demand-to-Supply interface energy check value iteration history trace: 1021.739932,1021.739932,1021.739932,1021.739932,1021.739932,1021.739931,1021.739931,1021.739931,1021.739931,1021.739931,
   **   ~~~   ** Supply-to-demand interface deck 1 energy check value iteration history trace: 1746.862142,1746.862142,1746.862142,1746.862142,1746.862142,1746.862142,1746.862142,1746.862141,1746.862141,1746.862141,
   ** Warning ** SimHVAC: Maximum iterations (20) exceeded for all HVAC loops, at ANNUAL, 01/28 11:00 - 11:15
   **   ~~~   ** The solution for one or more of the Air Loop HVAC systems did not appear to converge
   **   ~~~   ** Air System Named = CENTRAL SYSTEM did not converge for mass flow rate
   **   ~~~   ** Check values should be zero. Most Recent values listed first.
   **   ~~~   ** Demand-to-Supply interface mass flow rate check value iteration history trace: 5.476630E-002,5.476630E-002,5.476630E-002,5.476630E-002,5.476630E-002,5.476630E-002,5.476630E-002,5.476630E-002,5.476630E-002,5.476630E-002,
   **   ~~~   ** Supply-to-demand interface deck 1 mass flow rate check value iteration history trace: 5.476630E-002,5.476630E-002,5.476630E-002,5.476630E-002,5.476630E-002,5.476630E-002,5.476630E-002,5.476630E-002,5.476630E-002,5.476630E-002,
   **   ~~~   ** Air System Named = CENTRAL SYSTEM did not converge for energy
   **   ~~~   ** Check values should be zero. Most Recent values listed first.
   **   ~~~   ** Demand-to-Supply interface energy check value iteration history trace: 1084.444843,1084.444843,1084.444843,1084.444843,1084.444843,1084.444843,1084.444843,1084.444843,1084.444843,1084.444843,
   **   ~~~   ** Supply-to-demand interface deck 1 energy check value iteration history trace: 1992.204635,1992.204635,1992.204635,1992.204634,1992.204634,1992.204634,1992.204634,1992.204634,1992.204634,1992.204634,
   ** Warning ** SimHVAC: Maximum iterations (20) exceeded for all HVAC loops, at ANNUAL, 01/29 22:45 - 22:52
   **   ~~~   ** The solution for one or more of the Air Loop HVAC systems did not appear to converge
   **   ~~~   ** Air System Named = CENTRAL SYSTEM did not converge for mass flow rate
   **   ~~~   ** Check values should be zero. Most Recent values listed first.
   **   ~~~   ** Demand-to-Supply interface mass flow rate check value iteration history trace: 5.967489E-002,5.967489E-002,5.967489E-002,5.967489E-002,5.967489E-002,5.967489E-002,5.967489E-002,5.967489E-002,5.967489E-002,5.967489E-002,
   **   ~~~   ** Supply-to-demand interface deck 1 mass flow rate check value iteration history trace: 5.967489E-002,5.967489E-002,5.967489E-002,5.967489E-002,5.967489E-002,5.967489E-002,5.967489E-002,5.967489E-002,5.967489E-002,5.967489E-002,
   **   ~~~   ** Air System Named = CENTRAL SYSTEM did not converge for energy
   **   ~~~   ** Check values should be zero. Most Recent values listed first.
   **   ~~~   ** Demand-to-Supply interface energy check value iteration history trace: 1113.039744,1113.039744,1113.039744,1113.039744,1113.039744,1113.039744,1113.039744,1113.039744,1113.039744,1113.039744,
   **   ~~~   ** Supply-to-demand interface deck 1 energy check value iteration history trace: 1886.704729,1886.704729,1886.704729,1886.704729,1886.704729,1886.704729,1886.704729,1886.704728,1886.704728,1886.704728,
   ** Warning ** SimHVAC: Maximum iterations (20) exceeded for all HVAC loops, at ANNUAL, 02/07 19:45 - 19:49
   **   ~~~   ** The solution for one or more of the Air Loop HVAC systems did not appear to converge
   **   ~~~   ** Air System Named = CENTRAL SYSTEM did not converge for mass flow rate
   **   ~~~   ** Check values should be zero. Most Recent values listed first.
   **   ~~~   ** Demand-to-Supply interface mass flow rate check value iteration history trace: 9.573995E-002,9.573995E-002,9.573995E-002,9.573995E-002,9.573995E-002,9.573995E-002,9.573995E-002,9.573995E-002,9.573995E-002,9.573995E-002,
   **   ~~~   ** Supply-to-demand interface deck 1 mass flow rate check value iteration history trace: 9.573995E-002,9.573995E-002,9.573995E-002,9.573995E-002,9.573995E-002,9.573995E-002,9.573995E-002,9.573995E-002,9.573995E-002,9.573995E-002,
   **   ~~~   ** Air System Named = CENTRAL SYSTEM did not converge for energy
   **   ~~~   ** Check values should be zero. Most Recent values listed first.
   **   ~~~   ** Demand-to-Supply interface energy check value iteration history trace: 1891.885168,1891.885167,1891.885167,1891.885167,1891.885167,1891.885167,1891.885167,1891.885167,1891.885167,1891.885167,
   **   ~~~   ** Supply-to-demand interface deck 1 energy check value iteration history trace: 2979.085293,2979.085293,2979.085293,2979.085293,2979.085293,2979.085293,2979.085292,2979.085292,2979.085292,2979.085292,
   ** Warning ** SimHVAC: Maximum iterations (20) exceeded for all HVAC loops, at ANNUAL, 02/26 09:15 - 09:17
   **   ~~~   ** The solution for one or more of the Air Loop HVAC systems did not appear to converge
   **   ~~~   ** Air System Named = CENTRAL SYSTEM did not converge for mass flow rate
   **   ~~~   ** Check values should be zero. Most Recent values listed first.
   **   ~~~   ** Demand-to-Supply interface mass flow rate check value iteration history trace: 9.324280E-002,9.324280E-002,9.324280E-002,9.324280E-002,9.324280E-002,9.324280E-002,9.324280E-002,9.324280E-002,9.324280E-002,9.324280E-002,
   **   ~~~   ** Supply-to-demand interface deck 1 mass flow rate check value iteration history trace: 9.324280E-002,9.324280E-002,9.324280E-002,9.324280E-002,9.324280E-002,9.324280E-002,9.324280E-002,9.324280E-002,9.324280E-002,9.324280E-002,
   **   ~~~   ** Air System Named = CENTRAL SYSTEM did not converge for energy
   **   ~~~   ** Check values should be zero. Most Recent values listed first.
   **   ~~~   ** Demand-to-Supply interface energy check value iteration history trace: 1847.762287,1847.762287,1847.762287,1847.762287,1847.762287,1847.762287,1847.762287,1847.762287,1847.762287,1847.762287,
   **   ~~~   ** Supply-to-demand interface deck 1 energy check value iteration history trace: 3045.661632,3045.661632,3045.661632,3045.661632,3045.661632,3045.661632,3045.661632,3045.661631,3045.661631,3045.661631,
   ** Warning ** Temperature out of range [-100. to 200.] (PsyPsatFnTemp)
   **   ~~~   **  Routine=PsyTwbFnTdbWPb, Environment=ANNUAL, at Simulation time=03/01 18:00 - 18:03
   **   ~~~   **  Input Temperature=-158.20
   ** Warning ** SimHVAC: Maximum iterations (20) exceeded for all HVAC loops, at ANNUAL, 03/04 09:00 - 09:04
   **   ~~~   ** The solution for one or more of the Air Loop HVAC systems did not appear to converge
   **   ~~~   ** Air System Named = CENTRAL SYSTEM did not converge for mass flow rate
   **   ~~~   ** Check values should be zero. Most Recent values listed first.
   **   ~~~   ** Demand-to-Supply interface mass flow rate check value iteration history trace: 6.054186E-002,6.054186E-002,6.054186E-002,6.054186E-002,6.054186E-002,6.054186E-002,6.054186E-002,6.054186E-002,6.054186E-002,6.054186E-002,
   **   ~~~   ** Supply-to-demand interface deck 1 mass flow rate check value iteration history trace: 6.054186E-002,6.054186E-002,6.054186E-002,6.054186E-002,6.054186E-002,6.054186E-002,6.054186E-002,6.054186E-002,6.054186E-002,6.054186E-002,
   **   ~~~   ** Air System Named = CENTRAL SYSTEM did not converge for energy
   **   ~~~   ** Check values should be zero. Most Recent values listed first.
   **   ~~~   ** Demand-to-Supply interface energy check value iteration history trace: 1199.694449,1199.694449,1199.694449,1199.694449,1199.694449,1199.694449,1199.694449,1199.694449,1199.694449,1199.694449,
   **   ~~~   ** Supply-to-demand interface deck 1 energy check value iteration history trace: 2357.669883,2357.669883,2357.669883,2357.669883,2357.669882,2357.669882,2357.669882,2357.669882,2357.669882,2357.669882,
   ** Warning ** SimHVAC: Maximum iterations (20) exceeded for all HVAC loops, at ANNUAL, 03/11 09:15 - 09:17
   **   ~~~   ** The solution for one or more of the Air Loop HVAC systems did not appear to converge
   **   ~~~   ** Air System Named = CENTRAL SYSTEM did not converge for mass flow rate
   **   ~~~   ** Check values should be zero. Most Recent values listed first.
   **   ~~~   ** Demand-to-Supply interface mass flow rate check value iteration history trace: 8.186357E-002,8.186357E-002,8.186357E-002,8.186357E-002,8.186357E-002,8.186357E-002,8.186357E-002,8.186357E-002,8.186357E-002,8.186357E-002,
   **   ~~~   ** Supply-to-demand interface deck 1 mass flow rate check value iteration history trace: 8.186357E-002,8.186357E-002,8.186357E-002,8.186357E-002,8.186357E-002,8.186357E-002,8.186357E-002,8.186357E-002,8.186357E-002,8.186357E-002,
   **   ~~~   ** Air System Named = CENTRAL SYSTEM did not converge for energy
   **   ~~~   ** Check values should be zero. Most Recent values listed first.
   **   ~~~   ** Demand-to-Supply interface energy check value iteration history trace: 1622.264883,1622.264883,1622.264883,1622.264882,1622.264882,1622.264882,1622.264882,1622.264882,1622.264882,1622.264882,
   **   ~~~   ** Supply-to-demand interface deck 1 energy check value iteration history trace: 2779.822896,2779.822896,2779.822896,2779.822895,2779.822895,2779.822895,2779.822895,2779.822895,2779.822895,2779.822895,
   ** Warning ** SimHVAC: Maximum iterations (20) exceeded for all HVAC loops, at ANNUAL, 03/12 08:45 - 09:00
   **   ~~~   ** The solution for one or more of the Air Loop HVAC systems did not appear to converge
   **   ~~~   ** Air System Named = CENTRAL SYSTEM did not converge for mass flow rate
   **   ~~~   ** Check values should be zero. Most Recent values listed first.
   **   ~~~   ** Demand-to-Supply interface mass flow rate check value iteration history trace: 7.119901E-002,7.119901E-002,7.119901E-002,7.119901E-002,7.119901E-002,7.119901E-002,7.119901E-002,7.119901E-002,7.119901E-002,7.119901E-002,
   **   ~~~   ** Supply-to-demand interface deck 1 mass flow rate check value iteration history trace: 7.119901E-002,7.119901E-002,7.119901E-002,7.119901E-002,7.119901E-002,7.119901E-002,7.119901E-002,7.119901E-002,7.119901E-002,7.119901E-002,
   **   ~~~   ** Air System Named = CENTRAL SYSTEM did not converge for energy
   **   ~~~   ** Check values should be zero. Most Recent values listed first.
   **   ~~~   ** Demand-to-Supply interface energy check value iteration history trace: 1410.320242,1410.320242,1410.320242,1410.320242,1410.320242,1410.320242,1410.320242,1410.320242,1410.320241,1410.320241,
   **   ~~~   ** Supply-to-demand interface deck 1 energy check value iteration history trace: 2589.508168,2589.508168,2589.508168,2589.508168,2589.508168,2589.508168,2589.508168,2589.508168,2589.508168,2589.508168,
   ** Warning ** SimHVAC: Maximum iterations (20) exceeded for all HVAC loops, at ANNUAL, 04/05 08:05 - 08:08
   **   ~~~   ** The solution for one or more of the Air Loop HVAC systems did not appear to converge
   **   ~~~   ** Air System Named = CENTRAL SYSTEM did not converge for mass flow rate
   **   ~~~   ** Check values should be zero. Most Recent values listed first.
   **   ~~~   ** Demand-to-Supply interface mass flow rate check value iteration history trace: 4.994232E-002,4.994232E-002,4.994232E-002,4.994232E-002,4.994232E-002,4.994232E-002,4.994232E-002,4.994232E-002,4.994232E-002,4.994232E-002,
   **   ~~~   ** Supply-to-demand interface deck 1 mass flow rate check value iteration history trace: 4.994232E-002,4.994232E-002,4.994232E-002,4.994232E-002,4.994232E-002,4.994232E-002,4.994232E-002,4.994232E-002,4.994232E-002,4.994232E-002,
   **   ~~~   ** Air System Named = CENTRAL SYSTEM did not converge for energy
   **   ~~~   ** Check values should be zero. Most Recent values listed first.
   **   ~~~   ** Demand-to-Supply interface energy check value iteration history trace: 989.719618,989.719618,989.719618,989.719618,989.719618,989.719618,989.719618,989.719618,989.719618,989.719618,
   **   ~~~   ** Supply-to-demand interface deck 1 energy check value iteration history trace: 1925.776693,1925.776693,1925.776693,1925.776693,1925.776693,1925.776693,1925.776693,1925.776693,1925.776693,1925.776693,
   ** Warning ** SimHVAC: Maximum iterations (20) exceeded for all HVAC loops, at ANNUAL, 04/11 09:17 - 09:19
   **   ~~~   ** The solution for one or more of the Air Loop HVAC systems did not appear to converge
   **   ~~~   ** Air System Named = CENTRAL SYSTEM did not converge for mass flow rate
   **   ~~~   ** Check values should be zero. Most Recent values listed first.
   **   ~~~   ** Demand-to-Supply interface mass flow rate check value iteration history trace: 5.344375E-002,5.344375E-002,5.344375E-002,5.344375E-002,5.344375E-002,5.344375E-002,5.344375E-002,5.344375E-002,5.344375E-002,5.344375E-002,
   **   ~~~   ** Supply-to-demand interface deck 1 mass flow rate check value iteration history trace: 5.344375E-002,5.344375E-002,5.344375E-002,5.344375E-002,5.344375E-002,5.344375E-002,5.344375E-002,5.344375E-002,5.344375E-002,5.344375E-002,
   **   ~~~   ** Air System Named = CENTRAL SYSTEM did not converge for energy
   **   ~~~   ** Check values should be zero. Most Recent values listed first.
   **   ~~~   ** Demand-to-Supply interface energy check value iteration history trace: 1059.133165,1059.133165,1059.133165,1059.133165,1059.133165,1059.133165,1059.133164,1059.133164,1059.133164,1059.133164,
   **   ~~~   ** Supply-to-demand interface deck 1 energy check value iteration history trace: 1980.682227,1980.682227,1980.682227,1980.682227,1980.682227,1980.682227,1980.682227,1980.682227,1980.682226,1980.682226,
   ** Warning ** SimHVAC: Maximum iterations (20) exceeded for all HVAC loops, at ANNUAL, 04/18 20:03 - 20:06
   **   ~~~   ** The solution for one or more of the Air Loop HVAC systems did not appear to converge
   **   ~~~   ** Air System Named = CENTRAL SYSTEM did not converge for mass flow rate
   **   ~~~   ** Check values should be zero. Most Recent values listed first.
   **   ~~~   ** Demand-to-Supply interface mass flow rate check value iteration history trace: 7.788877E-002,7.788877E-002,7.788877E-002,7.788877E-002,7.788877E-002,7.788877E-002,7.788877E-002,7.788877E-002,7.788877E-002,7.788877E-002,
   **   ~~~   ** Supply-to-demand interface deck 1 mass flow rate check value iteration history trace: 7.788877E-002,7.788877E-002,7.788877E-002,7.788877E-002,7.788877E-002,7.788877E-002,7.788877E-002,7.788877E-002,7.788877E-002,7.788877E-002,
   **   ~~~   ** Air System Named = CENTRAL SYSTEM did not converge for energy
   **   ~~~   ** Check values should be zero. Most Recent values listed first.
   **   ~~~   ** Demand-to-Supply interface energy check value iteration history trace: 1539.328467,1539.328466,1539.328466,1539.328466,1539.328466,1539.328466,1539.328466,1539.328466,1539.328466,1539.328466,
   **   ~~~   ** Supply-to-demand interface deck 1 energy check value iteration history trace: 2508.518868,2508.518868,2508.518868,2508.518868,2508.518868,2508.518867,2508.518867,2508.518867,2508.518867,2508.518867,
   ** Warning ** SimHVAC: Maximum iterations (20) exceeded for all HVAC loops, at ANNUAL, 05/06 09:23 - 09:30
   **   ~~~   ** The solution for one or more of the Air Loop HVAC systems did not appear to converge
   **   ~~~   ** Air System Named = CENTRAL SYSTEM did not converge for mass flow rate
   **   ~~~   ** Check values should be zero. Most Recent values listed first.
   **   ~~~   ** Demand-to-Supply interface mass flow rate check value iteration history trace: 5.460324E-002,5.460324E-002,5.460324E-002,5.460324E-002,5.460324E-002,5.460324E-002,5.460324E-002,5.460324E-002,5.460324E-002,5.460324E-002,
   **   ~~~   ** Supply-to-demand interface deck 1 mass flow rate check value iteration history trace: 5.460324E-002,5.460324E-002,5.460324E-002,5.460324E-002,5.460324E-002,5.460324E-002,5.460324E-002,5.460324E-002,5.460324E-002,5.460324E-002,
   **   ~~~   ** Air System Named = CENTRAL SYSTEM did not converge for energy
   **   ~~~   ** Check values should be zero. Most Recent values listed first.
   **   ~~~   ** Demand-to-Supply interface energy check value iteration history trace: 1073.819427,1073.819427,1073.819427,1073.819427,1073.819427,1073.819427,1073.819427,1073.819427,1073.819427,1073.819427,
   **   ~~~   ** Supply-to-demand interface deck 1 energy check value iteration history trace: 2183.074003,2183.074003,2183.074003,2183.074003,2183.074002,2183.074002,2183.074002,2183.074002,2183.074002,2183.074002,
   ** Warning ** SimHVAC: Maximum iterations (20) exceeded for all HVAC loops, at ANNUAL, 05/24 08:03 - 08:06
   **   ~~~   ** The solution for one or more of the Air Loop HVAC systems did not appear to converge
   **   ~~~   ** Air System Named = CENTRAL SYSTEM did not converge for mass flow rate
   **   ~~~   ** Check values should be zero. Most Recent values listed first.
   **   ~~~   ** Demand-to-Supply interface mass flow rate check value iteration history trace: 0.318203,0.318203,0.318203,0.318203,0.318203,0.318203,0.318203,0.318203,0.318203,0.318203,
   **   ~~~   ** Supply-to-demand interface deck 1 mass flow rate check value iteration history trace: 0.318203,0.318203,0.318203,0.318203,0.318203,0.318203,0.318203,0.318203,0.318203,0.318203,
   **   ~~~   ** Air System Named = CENTRAL SYSTEM did not converge for energy
   **   ~~~   ** Check values should be zero. Most Recent values listed first.
   **   ~~~   ** Demand-to-Supply interface energy check value iteration history trace: 7626.072571,7626.072571,7626.072572,7626.072572,7626.072573,7626.072573,7626.072574,7626.072574,7626.072575,7626.072575,
   **   ~~~   ** Supply-to-demand interface deck 1 energy check value iteration history trace: 3152.569594,3152.569595,3152.569595,3152.569595,3152.569595,3152.569595,3152.569596,3152.569596,3152.569596,3152.569596,
   ************* Simulation Error Summary *************
   ** Warning ** The following Report Variables were requested but not generated -- check.rdd file
   **   ~~~   ** Either the IDF did not contain these elements, the variable name is misspelled,
   **   ~~~   ** or the requested variable is an advanced output which requires Output : Diagnostics, DisplayAdvancedReportVariables;
   ************* Key=*, VarName=BASEBOARD TOTAL HEATING ENERGY, Frequency=
   ************* Key=*, VarName=WATER HEATER NATURALGAS ENERGY, Frequency=
   ************* Key=*, VarName=COOLING COIL TOTAL HEATING ENERGY, Frequency=
   ************* There are 34 unused schedules in input.
   ************* There are 388 unused week schedules in input.
   ************* There are 396 unused day schedules in input.
   ************* Use Output:Diagnostics,DisplayUnusedSchedules; to see them.
   *************
   ************* ===== Recurring Error Summary =====
   ************* The following recurring error messages occurred.
   *************
   *************  ** Warning ** "TOTAL HOT WATER LOAD" - Target water temperature should be less than or equal to the hot water temperature error continues...
   *************  **   ~~~   **   This error occurred 139207 total times;
   *************  **   ~~~   **   during Warmup 0 times;
   *************  **   ~~~   **   during Sizing 0 times.
   *************  **   ~~~   **   Max=10.099338  Min=1.652610E-004
   *************
   *************  ** Warning ** Temperature out of range [-100. to 200.] (PsyPsatFnTemp)
   *************  **   ~~~   **   This error occurred 2 total times;
   *************  **   ~~~   **   during Warmup 0 times;
   *************  **   ~~~   **   during Sizing 0 times.
   *************  **   ~~~   **   Max=-139.868759 C  Min=-158.209564 C
   *************
   *************  ** Warning ** SimHVAC: Exceeding Maximum iterations for all HVAC loops, during ANNUAL continues
   *************  **   ~~~   **   This error occurred 7 total times;
   *************  **   ~~~   **   during Warmup 0 times;
   *************  **   ~~~   **   during Sizing 0 times.
   *************
   *************
   ************* ===== Final Error Summary =====
   ************* The following error categories occurred.  Consider correcting or noting.
   ************* Nominally Unused Constructions
   ************* ..The nominally unused constructions warning is provided to alert you to potential conditions that can cause
   ************* ..extra time during simulation. Each construction is calculated by the algorithm indicated in the HeatBalanceAlgorithm
   ************* ..object. You may remove the constructions indicated (when you use the DisplayExtraWarnings option).
   *************
   ************* EnergyPlus Warmup Error Summary. During Warmup: 1 Warning; 0 Severe Errors.
   ************* EnergyPlus Sizing Error Summary. During Sizing: 4 Warning; 0 Severe Errors.
   ************* EnergyPlus Completed Successfully-- 139248 Warning; 0 Severe Errors; Elapsed Time=00hr 06min  6.27sec
