Program Version,EnergyPlus, Version 22.2.0-c249759bad, YMD=2023.09.01 15:20,
   ************* Beginning Zone Sizing Calculations
   ** Warning ** ProcessScheduleInput: Schedule:Constant="ALWAYS ON DISCRETE", Schedule Type Limits Name="ONOFF" not found -- will not be validated
   ** Warning ** Foundation:Kiva="KIVA FOUNDATION", no Interior Horizontal Insulation Material Name defined
   **   ~~~   ** Interior Horizontal Insulation Depth will not be used.
   ** Warning ** CheckUsedConstructions: There are 15 nominally unused constructions in input.
   **   ~~~   ** Each Unused construction is shown.
   ************* Construction=INTERIOR FLOOR
   ************* Construction=INTERIOR WINDOW
   ************* Construction=EXTERIOR DOOR
   ************* Construction=INTERIOR DOOR
   ************* Construction=GABLE CONSTRUCTION
   ************* Construction=CRAWL_FLOOR
   ************* Construction=INSULATED PIPE
   ************* Construction=PLAIN PIPE
   ************* Construction=TDD PIPE
   ************* Construction=TDD DOME
   ************* Construction=TDD DIFFUSER
   ************* Construction=CRAWL WALL
   ************* Construction=CEILING-FLOOR-LAYER
   ************* Construction=SLAB CONSTRUCTION W FULL R10 INSULATION
   ************* Construction=SLAB CONSTRUCTION W FULL R5 INSULATION
   ** Warning ** GetDXCoils: Coil:Heating:DX:SingleSpeed="DX_HEATING_COIL" curve values
   **   ~~~   ** ... Defrost Energy Input Ratio Function of Temperature Curve Name = DEFROSTEIR output is not equal to 1.0 (+ or - 10%) at rated conditions.
   **   ~~~   ** ... Curve output at rated conditions = 0.152
   ************* Beginning System Sizing Calculations
   ************* Beginning Plant Sizing Calculations
   ** Warning ** SizeDXCoil Coil:Cooling:DX:SingleSpeed DX_COOLING_COIL
   **   ~~~   ** ...Gross Rated Total Cooling Capacity [W] will be limited by the maximum rated volume flow per rated total capacity ratio.
   **   ~~~   ** ...DX coil volume flow rate ( m3/s ) = 0.402599
   **   ~~~   ** ...Requested capacity ( W ) = 6314.380
   **   ~~~   ** ...Requested flow/capacity ratio ( m3/s/W ) = 6.375E-005
   **   ~~~   ** ...Maximum flow/capacity ratio ( m3/s/W ) = 6.041E-005
   **   ~~~   ** ...Adjusted capacity ( W ) = 6664.450
   ** Warning ** Coil:WaterHeating:AirToWaterHeatPump:Wrapped "HEAT PUMP WATER HEATER EVAPORATOR": Rated air volume flow rate per watt of rated total water heating capacity is out of range
   **   ~~~   ** Min Rated Vol Flow Per Watt=[4.027E-005], Rated Vol Flow Per Watt=[1.386E-004], Max Rated Vol Flow Per Watt=[8.056E-005]. See Input-Output Reference Manual for valid range.
   ** Warning ** Water heater = WATER HEATER TANK:  Recovery Efficiency and Energy Factor could not be calculated during the test for standard ratings
   **   ~~~   ** Setpoint was never recovered and/or heater never turned on
   ** Warning ** Check input. Pump nominal power or motor efficiency is set to 0, for pump=MAINS PRESSURE
   ** Warning ** Output:Meter: invalid Key Name="ELECTRIC_RANGE:INTERIOREQUIPMENT:ELECTRICITY" - not found.
   ** Warning ** Output:Meter: invalid Key Name="ELECTRIC_DRYER:INTERIOREQUIPMENT:ELECTRICITY" - not found.
   ** Warning ** Output:Meter: invalid Key Name="HEATRECOVERY:ELECTRICITY" - not found.
   ** Warning ** Output:Meter: invalid Key Name="HEATING:NATURALGAS" - not found.
   ** Warning ** Output:Meter: invalid Key Name="WATERSYSTEMS:NATURALGAS" - not found.
   ** Warning ** Output:Meter: invalid Key Name="PROPANE:FACILITY" - not found.
   ** Warning ** Output:Meter: invalid Key Name="HEATING:PROPANE" - not found.
   ************* Testing Individual Branch Integrity
   ************* All Branches passed integrity testing
   ************* Testing Individual Supply Air Path Integrity
   ************* All Supply Air Paths passed integrity testing
   ************* Testing Individual Return Air Path Integrity
   ************* All Return Air Paths passed integrity testing
   ************* No node connection errors were found.
   ************* Beginning Simulation
   ** Warning ** AirflowNetwork::Solver::validate_distribution: Heat pump water heater is simulated along with an AirflowNetwork but is not included in the AirflowNetwork.
   ** Warning ** CalcEquipmentFlowRates: "TOTAL HOT WATER LOAD" - Target water temperature is greater than the hot water temperature by (1.68 C)
   **   ~~~   **  Environment=EXTREME_WINTER, at Simulation time=01/27 06:00 - 06:15
   **   ~~~   ** ...target water temperature     = 53.33 C
   **   ~~~   ** ...hot water temperature        = 51.65 C
   **   ~~~   ** ...Target water temperature should be less than or equal to the hot water temperature. Verify temperature setpoints and schedules.
   ** Warning ** SimHVAC: Maximum iterations (20) exceeded for all HVAC loops, at ANNUAL, 01/06 06:30 - 06:45
   **   ~~~   ** The solution for one or more of the Air Loop HVAC systems did not appear to converge
   **   ~~~   ** Air System Named = CENTRAL SYSTEM did not converge for mass flow rate
   **   ~~~   ** Check values should be zero. Most Recent values listed first.
   **   ~~~   ** Demand-to-Supply interface mass flow rate check value iteration history trace: 6.155919E-002,6.155919E-002,6.155919E-002,6.155919E-002,6.155919E-002,6.155919E-002,6.155919E-002,6.155919E-002,6.155919E-002,6.155919E-002,
   **   ~~~   ** Supply-to-demand interface deck 1 mass flow rate check value iteration history trace: 6.155919E-002,6.155919E-002,6.155919E-002,6.155919E-002,6.155919E-002,6.155919E-002,6.155919E-002,6.155919E-002,6.155919E-002,6.155919E-002,
   **   ~~~   ** Air System Named = CENTRAL SYSTEM did not converge for energy
   **   ~~~   ** Check values should be zero. Most Recent values listed first.
   **   ~~~   ** Demand-to-Supply interface energy check value iteration history trace: 1217.699434,1217.699434,1217.699434,1217.699434,1217.699434,1217.699434,1217.699434,1217.699434,1217.699434,1217.699434,
   **   ~~~   ** Supply-to-demand interface deck 1 energy check value iteration history trace: 2189.116530,2189.116530,2189.116530,2189.116530,2189.116530,2189.116530,2189.116530,2189.116530,2189.116530,2189.116530,
   ** Warning ** SimHVAC: Maximum iterations (20) exceeded for all HVAC loops, at ANNUAL, 02/25 08:48 - 08:51
   **   ~~~   ** The solution for one or more of the Air Loop HVAC systems did not appear to converge
   **   ~~~   ** Air System Named = CENTRAL SYSTEM did not converge for mass flow rate
   **   ~~~   ** Check values should be zero. Most Recent values listed first.
   **   ~~~   ** Demand-to-Supply interface mass flow rate check value iteration history trace: 8.890090E-002,8.890090E-002,8.890090E-002,8.890090E-002,8.890090E-002,8.890090E-002,8.890090E-002,8.890090E-002,8.890090E-002,8.890090E-002,
   **   ~~~   ** Supply-to-demand interface deck 1 mass flow rate check value iteration history trace: 8.890090E-002,8.890090E-002,8.890090E-002,8.890090E-002,8.890090E-002,8.890090E-002,8.890090E-002,8.890090E-002,8.890090E-002,8.890090E-002,
   **   ~~~   ** Air System Named = CENTRAL SYSTEM did not converge for energy
   **   ~~~   ** Check values should be zero. Most Recent values listed first.
   **   ~~~   ** Demand-to-Supply interface energy check value iteration history trace: 1761.658887,1761.658887,1761.658887,1761.658887,1761.658887,1761.658887,1761.658886,1761.658886,1761.658886,1761.658886,
   **   ~~~   ** Supply-to-demand interface deck 1 energy check value iteration history trace: 3000.363267,3000.363267,3000.363267,3000.363266,3000.363266,3000.363266,3000.363266,3000.363266,3000.363266,3000.363266,
   ** Warning ** SimHVAC: Maximum iterations (20) exceeded for all HVAC loops, at ANNUAL, 02/25 09:00 - 09:05
   **   ~~~   ** The solution for one or more of the Air Loop HVAC systems did not appear to converge
   **   ~~~   ** Air System Named = CENTRAL SYSTEM did not converge for mass flow rate
   **   ~~~   ** Check values should be zero. Most Recent values listed first.
   **   ~~~   ** Demand-to-Supply interface mass flow rate check value iteration history trace: 9.126938E-002,9.126938E-002,9.126938E-002,9.126938E-002,9.126938E-002,9.126938E-002,9.126938E-002,9.126938E-002,9.126938E-002,9.126938E-002,
   **   ~~~   ** Supply-to-demand interface deck 1 mass flow rate check value iteration history trace: 9.126938E-002,9.126938E-002,9.126938E-002,9.126938E-002,9.126938E-002,9.126938E-002,9.126938E-002,9.126938E-002,9.126938E-002,9.126938E-002,
   **   ~~~   ** Air System Named = CENTRAL SYSTEM did not converge for energy
   **   ~~~   ** Check values should be zero. Most Recent values listed first.
   **   ~~~   ** Demand-to-Supply interface energy check value iteration history trace: 1803.208483,1803.208483,1803.208483,1803.208483,1803.208483,1803.208483,1803.208482,1803.208482,1803.208482,1803.208482,
   **   ~~~   ** Supply-to-demand interface deck 1 energy check value iteration history trace: 3075.222458,3075.222458,3075.222458,3075.222458,3075.222458,3075.222458,3075.222457,3075.222457,3075.222457,3075.222457,
   ** Warning ** SimHVAC: Maximum iterations (20) exceeded for all HVAC loops, at ANNUAL, 03/16 07:15 - 07:30
   **   ~~~   ** The solution for one or more of the Air Loop HVAC systems did not appear to converge
   **   ~~~   ** Air System Named = CENTRAL SYSTEM did not converge for mass flow rate
   **   ~~~   ** Check values should be zero. Most Recent values listed first.
   **   ~~~   ** Demand-to-Supply interface mass flow rate check value iteration history trace: 6.089257E-002,6.089257E-002,6.089257E-002,6.089257E-002,6.089257E-002,6.089257E-002,6.089257E-002,6.089257E-002,6.089257E-002,6.089257E-002,
   **   ~~~   ** Supply-to-demand interface deck 1 mass flow rate check value iteration history trace: 6.089257E-002,6.089257E-002,6.089257E-002,6.089257E-002,6.089257E-002,6.089257E-002,6.089257E-002,6.089257E-002,6.089257E-002,6.089257E-002,
   **   ~~~   ** Air System Named = CENTRAL SYSTEM did not converge for energy
   **   ~~~   ** Check values should be zero. Most Recent values listed first.
   **   ~~~   ** Demand-to-Supply interface energy check value iteration history trace: 1197.037323,1197.037323,1197.037323,1197.037323,1197.037323,1197.037323,1197.037323,1197.037323,1197.037322,1197.037322,
   **   ~~~   ** Supply-to-demand interface deck 1 energy check value iteration history trace: 2137.095505,2137.095505,2137.095505,2137.095505,2137.095505,2137.095504,2137.095504,2137.095504,2137.095504,2137.095504,
   ** Warning ** SimHVAC: Maximum iterations (20) exceeded for all HVAC loops, at ANNUAL, 04/23 11:13 - 11:15
   **   ~~~   ** The solution for one or more of the Air Loop HVAC systems did not appear to converge
   **   ~~~   ** Air System Named = CENTRAL SYSTEM did not converge for mass flow rate
   **   ~~~   ** Check values should be zero. Most Recent values listed first.
   **   ~~~   ** Demand-to-Supply interface mass flow rate check value iteration history trace: 0.104817,0.104817,0.104817,0.104817,0.104817,0.104817,0.104817,0.104817,0.104817,0.104817,
   **   ~~~   ** Supply-to-demand interface deck 1 mass flow rate check value iteration history trace: 0.104817,0.104817,0.104817,0.104817,0.104817,0.104817,0.104817,0.104817,0.104817,0.104817,
   **   ~~~   ** Air System Named = CENTRAL SYSTEM did not converge for energy
   **   ~~~   ** Check values should be zero. Most Recent values listed first.
   **   ~~~   ** Demand-to-Supply interface energy check value iteration history trace: 2473.742319,2473.742319,2473.742320,2473.742320,2473.742320,2473.742320,2473.742320,2473.742320,2473.742320,2473.742321,
   **   ~~~   ** Supply-to-demand interface deck 1 energy check value iteration history trace: 1086.023908,1086.023908,1086.023908,1086.023908,1086.023908,1086.023908,1086.023908,1086.023908,1086.023908,1086.023908,
   ** Warning ** SimHVAC: Maximum iterations (20) exceeded for all HVAC loops, at ANNUAL, 11/29 07:45 - 08:00
   **   ~~~   ** The solution for one or more of the Air Loop HVAC systems did not appear to converge
   **   ~~~   ** Air System Named = CENTRAL SYSTEM did not converge for mass flow rate
   **   ~~~   ** Check values should be zero. Most Recent values listed first.
   **   ~~~   ** Demand-to-Supply interface mass flow rate check value iteration history trace: 7.981955E-002,7.981955E-002,7.981955E-002,7.981955E-002,7.981955E-002,7.981955E-002,7.981955E-002,7.981955E-002,7.981955E-002,7.981955E-002,
   **   ~~~   ** Supply-to-demand interface deck 1 mass flow rate check value iteration history trace: 7.981955E-002,7.981955E-002,7.981955E-002,7.981955E-002,7.981955E-002,7.981955E-002,7.981955E-002,7.981955E-002,7.981955E-002,7.981955E-002,
   **   ~~~   ** Air System Named = CENTRAL SYSTEM did not converge for energy
   **   ~~~   ** Check values should be zero. Most Recent values listed first.
   **   ~~~   ** Demand-to-Supply interface energy check value iteration history trace: 1581.504281,1581.504281,1581.504281,1581.504281,1581.504281,1581.504281,1581.504281,1581.504281,1581.504281,1581.504281,
   **   ~~~   ** Supply-to-demand interface deck 1 energy check value iteration history trace: 2690.107107,2690.107107,2690.107107,2690.107107,2690.107107,2690.107107,2690.107107,2690.107107,2690.107107,2690.107106,
   ** Warning ** SimHVAC: Maximum iterations (20) exceeded for all HVAC loops, at ANNUAL, 12/03 09:00 - 09:15
   **   ~~~   ** The solution for one or more of the Air Loop HVAC systems did not appear to converge
   **   ~~~   ** Air System Named = CENTRAL SYSTEM did not converge for mass flow rate
   **   ~~~   ** Check values should be zero. Most Recent values listed first.
   **   ~~~   ** Demand-to-Supply interface mass flow rate check value iteration history trace: 8.919850E-002,8.919850E-002,8.919850E-002,8.919850E-002,8.919850E-002,8.919850E-002,8.919850E-002,8.919850E-002,8.919850E-002,8.919850E-002,
   **   ~~~   ** Supply-to-demand interface deck 1 mass flow rate check value iteration history trace: 8.919850E-002,8.919850E-002,8.919850E-002,8.919850E-002,8.919850E-002,8.919850E-002,8.919850E-002,8.919850E-002,8.919850E-002,8.919850E-002,
   **   ~~~   ** Air System Named = CENTRAL SYSTEM did not converge for energy
   **   ~~~   ** Check values should be zero. Most Recent values listed first.
   **   ~~~   ** Demand-to-Supply interface energy check value iteration history trace: 1755.457537,1755.457537,1755.457537,1755.457537,1755.457537,1755.457537,1755.457537,1755.457537,1755.457537,1755.457537,
   **   ~~~   ** Supply-to-demand interface deck 1 energy check value iteration history trace: 3013.506855,3013.506855,3013.506855,3013.506855,3013.506855,3013.506855,3013.506855,3013.506855,3013.506854,3013.506854,
   ** Warning ** SimHVAC: Maximum iterations (20) exceeded for all HVAC loops, at ANNUAL, 12/09 10:54 - 10:56
   **   ~~~   ** The solution for one or more of the Air Loop HVAC systems did not appear to converge
   **   ~~~   ** Air System Named = CENTRAL SYSTEM did not converge for mass flow rate
   **   ~~~   ** Check values should be zero. Most Recent values listed first.
   **   ~~~   ** Demand-to-Supply interface mass flow rate check value iteration history trace: 7.113777E-002,7.113777E-002,7.113777E-002,7.113777E-002,7.113777E-002,7.113777E-002,7.113777E-002,7.113777E-002,7.113777E-002,7.113777E-002,
   **   ~~~   ** Supply-to-demand interface deck 1 mass flow rate check value iteration history trace: 7.113777E-002,7.113777E-002,7.113777E-002,7.113777E-002,7.113777E-002,7.113777E-002,7.113777E-002,7.113777E-002,7.113777E-002,7.113777E-002,
   **   ~~~   ** Air System Named = CENTRAL SYSTEM did not converge for energy
   **   ~~~   ** Check values should be zero. Most Recent values listed first.
   **   ~~~   ** Demand-to-Supply interface energy check value iteration history trace: 1405.290720,1405.290720,1405.290720,1405.290720,1405.290720,1405.290720,1405.290720,1405.290720,1405.290720,1405.290720,
   **   ~~~   ** Supply-to-demand interface deck 1 energy check value iteration history trace: 2384.725180,2384.725180,2384.725180,2384.725179,2384.725179,2384.725179,2384.725179,2384.725179,2384.725179,2384.725179,
   ** Warning ** SimHVAC: Maximum iterations (20) exceeded for all HVAC loops, at ANNUAL, 12/17 11:36 - 11:39
   **   ~~~   ** The solution for one or more of the Air Loop HVAC systems did not appear to converge
   **   ~~~   ** Air System Named = CENTRAL SYSTEM did not converge for mass flow rate
   **   ~~~   ** Check values should be zero. Most Recent values listed first.
   **   ~~~   ** Demand-to-Supply interface mass flow rate check value iteration history trace: 9.062904E-002,9.062904E-002,9.062904E-002,9.062904E-002,9.062904E-002,9.062904E-002,9.062904E-002,9.062904E-002,9.062904E-002,9.062904E-002,
   **   ~~~   ** Supply-to-demand interface deck 1 mass flow rate check value iteration history trace: 9.062904E-002,9.062904E-002,9.062904E-002,9.062904E-002,9.062904E-002,9.062904E-002,9.062904E-002,9.062904E-002,9.062904E-002,9.062904E-002,
   **   ~~~   ** Air System Named = CENTRAL SYSTEM did not converge for energy
   **   ~~~   ** Check values should be zero. Most Recent values listed first.
   **   ~~~   ** Demand-to-Supply interface energy check value iteration history trace: 1782.474419,1782.474419,1782.474419,1782.474419,1782.474419,1782.474419,1782.474418,1782.474418,1782.474418,1782.474418,
   **   ~~~   ** Supply-to-demand interface deck 1 energy check value iteration history trace: 2783.700223,2783.700223,2783.700223,2783.700222,2783.700222,2783.700222,2783.700222,2783.700222,2783.700222,2783.700221,
   ** Warning ** SimHVAC: Maximum iterations (20) exceeded for all HVAC loops, at ANNUAL, 12/17 21:45 - 21:50
   **   ~~~   ** The solution for one or more of the Air Loop HVAC systems did not appear to converge
   **   ~~~   ** Air System Named = CENTRAL SYSTEM did not converge for mass flow rate
   **   ~~~   ** Check values should be zero. Most Recent values listed first.
   **   ~~~   ** Demand-to-Supply interface mass flow rate check value iteration history trace: 8.691060E-002,8.691060E-002,8.691060E-002,8.691060E-002,8.691060E-002,8.691060E-002,8.691060E-002,8.691060E-002,8.691060E-002,8.691060E-002,
   **   ~~~   ** Supply-to-demand interface deck 1 mass flow rate check value iteration history trace: 8.691060E-002,8.691060E-002,8.691060E-002,8.691060E-002,8.691060E-002,8.691060E-002,8.691060E-002,8.691060E-002,8.691060E-002,8.691060E-002,
   **   ~~~   ** Air System Named = CENTRAL SYSTEM did not converge for energy
   **   ~~~   ** Check values should be zero. Most Recent values listed first.
   **   ~~~   ** Demand-to-Supply interface energy check value iteration history trace: 1714.285645,1714.285645,1714.285645,1714.285645,1714.285645,1714.285645,1714.285645,1714.285644,1714.285644,1714.285644,
   **   ~~~   ** Supply-to-demand interface deck 1 energy check value iteration history trace: 2626.915723,2626.915723,2626.915722,2626.915722,2626.915722,2626.915722,2626.915722,2626.915721,2626.915721,2626.915721,
   ** Warning ** SimHVAC: Maximum iterations (20) exceeded for all HVAC loops, at ANNUAL, 12/21 06:30 - 06:45
   **   ~~~   ** The solution for one or more of the Air Loop HVAC systems did not appear to converge
   **   ~~~   ** Air System Named = CENTRAL SYSTEM did not converge for mass flow rate
   **   ~~~   ** Check values should be zero. Most Recent values listed first.
   **   ~~~   ** Demand-to-Supply interface mass flow rate check value iteration history trace: 4.598252E-002,4.598252E-002,4.598252E-002,4.598252E-002,4.598252E-002,4.598252E-002,4.598252E-002,4.598252E-002,4.598252E-002,4.598252E-002,
   **   ~~~   ** Supply-to-demand interface deck 1 mass flow rate check value iteration history trace: 4.598252E-002,4.598252E-002,4.598252E-002,4.598252E-002,4.598252E-002,4.598252E-002,4.598252E-002,4.598252E-002,4.598252E-002,4.598252E-002,
   **   ~~~   ** Air System Named = CENTRAL SYSTEM did not converge for energy
   **   ~~~   ** Check values should be zero. Most Recent values listed first.
   **   ~~~   ** Demand-to-Supply interface energy check value iteration history trace: 910.671693,910.671693,910.671693,910.671693,910.671693,910.671693,910.671693,910.671693,910.671693,910.671693,
   **   ~~~   ** Supply-to-demand interface deck 1 energy check value iteration history trace: 1689.547796,1689.547796,1689.547796,1689.547796,1689.547796,1689.547796,1689.547795,1689.547795,1689.547795,1689.547795,
   ************* Simulation Error Summary *************
   ** Warning ** The following Report Variables were requested but not generated -- check.rdd file
   **   ~~~   ** Either the IDF did not contain these elements, the variable name is misspelled,
   **   ~~~   ** or the requested variable is an advanced output which requires Output : Diagnostics, DisplayAdvancedReportVariables;
   ************* Key=*, VarName=BASEBOARD TOTAL HEATING ENERGY, Frequency=
   ************* Key=*, VarName=WATER HEATER NATURALGAS ENERGY, Frequency=
   ************* Key=*, VarName=COOLING COIL TOTAL HEATING ENERGY, Frequency=
   ************* There are 34 unused schedules in input.
   ************* There are 388 unused week schedules in input.
   ************* There are 396 unused day schedules in input.
   ************* Use Output:Diagnostics,DisplayUnusedSchedules; to see them.
   *************
   ************* ===== Recurring Error Summary =====
   ************* The following recurring error messages occurred.
   *************
   *************  ** Warning ** "TOTAL HOT WATER LOAD" - Target water temperature should be less than or equal to the hot water temperature error continues...
   *************  **   ~~~   **   This error occurred 114879 total times;
   *************  **   ~~~   **   during Warmup 0 times;
   *************  **   ~~~   **   during Sizing 0 times.
   *************  **   ~~~   **   Max=8.483611  Min=4.605185E-005
   *************
   *************
   ************* ===== Final Error Summary =====
   ************* The following error categories occurred.  Consider correcting or noting.
   ************* Nominally Unused Constructions
   ************* ..The nominally unused constructions warning is provided to alert you to potential conditions that can cause
   ************* ..extra time during simulation. Each construction is calculated by the algorithm indicated in the HeatBalanceAlgorithm
   ************* ..object. You may remove the constructions indicated (when you use the DisplayExtraWarnings option).
   *************
   ************* EnergyPlus Warmup Error Summary. During Warmup: 1 Warning; 0 Severe Errors.
   ************* EnergyPlus Sizing Error Summary. During Sizing: 4 Warning; 0 Severe Errors.
   ************* EnergyPlus Completed Successfully-- 114908 Warning; 0 Severe Errors; Elapsed Time=00hr 05min 53.74sec
