Program Version,EnergyPlus, Version 22.2.0-c249759bad, YMD=2023.09.01 19:00,
   ************* Beginning Zone Sizing Calculations
   ** Warning ** ProcessScheduleInput: Schedule:Constant="ALWAYS ON DISCRETE", Schedule Type Limits Name="ONOFF" not found -- will not be validated
   ** Warning ** Foundation:Kiva="KIVA FOUNDATION", no Interior Horizontal Insulation Material Name defined
   **   ~~~   ** Interior Horizontal Insulation Depth will not be used.
   ** Warning ** CheckUsedConstructions: There are 15 nominally unused constructions in input.
   **   ~~~   ** Each Unused construction is shown.
   ************* Construction=INTERIOR FLOOR
   ************* Construction=INTERIOR WINDOW
   ************* Construction=EXTERIOR DOOR
   ************* Construction=INTERIOR DOOR
   ************* Construction=GABLE CONSTRUCTION
   ************* Construction=CRAWL_FLOOR
   ************* Construction=INSULATED PIPE
   ************* Construction=PLAIN PIPE
   ************* Construction=TDD PIPE
   ************* Construction=TDD DOME
   ************* Construction=TDD DIFFUSER
   ************* Construction=CRAWL WALL
   ************* Construction=CEILING-FLOOR-LAYER
   ************* Construction=SLAB CONSTRUCTION W FULL R10 INSULATION
   ************* Construction=SLAB CONSTRUCTION W FULL R5 INSULATION
   ** Warning ** GetDXCoils: Coil:Heating:DX:SingleSpeed="DX_HEATING_COIL" curve values
   **   ~~~   ** ... Defrost Energy Input Ratio Function of Temperature Curve Name = DEFROSTEIR output is not equal to 1.0 (+ or - 10%) at rated conditions.
   **   ~~~   ** ... Curve output at rated conditions = 0.152
   ************* Beginning System Sizing Calculations
   ************* Beginning Plant Sizing Calculations
   ** Warning ** Coil:WaterHeating:AirToWaterHeatPump:Wrapped "HEAT PUMP WATER HEATER EVAPORATOR": Rated air volume flow rate per watt of rated total water heating capacity is out of range
   **   ~~~   ** Min Rated Vol Flow Per Watt=[4.027E-005], Rated Vol Flow Per Watt=[1.510E-004], Max Rated Vol Flow Per Watt=[8.056E-005]. See Input-Output Reference Manual for valid range.
   ************* SizeFan: : Potential issue with equipment sizing for Fan:OnOff HEAT PUMP WATER HEATER FAN
   **   ~~~   ** User-Specified Maximum Flow Rate [m3/s] = 0.22653
   **   ~~~   ** differs from Design Size Maximum Flow Rate [m3/s] = 7.55250E-002
   **   ~~~   ** This may, or may not, indicate mismatched component sizes.
   **   ~~~   ** Verify that the value entered is intended and is consistent with other components.
   ** Warning ** Water heater = WATER HEATER TANK:  Recovery Efficiency and Energy Factor could not be calculated during the test for standard ratings
   **   ~~~   ** Setpoint was never recovered and/or heater never turned on
   ** Warning ** Check input. Pump nominal power or motor efficiency is set to 0, for pump=MAINS PRESSURE
   ** Warning ** Output:Meter: invalid Key Name="ELECTRIC_RANGE:INTERIOREQUIPMENT:ELECTRICITY" - not found.
   ** Warning ** Output:Meter: invalid Key Name="ELECTRIC_DRYER:INTERIOREQUIPMENT:ELECTRICITY" - not found.
   ** Warning ** Output:Meter: invalid Key Name="HEATRECOVERY:ELECTRICITY" - not found.
   ** Warning ** Output:Meter: invalid Key Name="HEATING:NATURALGAS" - not found.
   ** Warning ** Output:Meter: invalid Key Name="WATERSYSTEMS:NATURALGAS" - not found.
   ** Warning ** Output:Meter: invalid Key Name="PROPANE:FACILITY" - not found.
   ** Warning ** Output:Meter: invalid Key Name="HEATING:PROPANE" - not found.
   ************* Testing Individual Branch Integrity
   ************* All Branches passed integrity testing
   ************* Testing Individual Supply Air Path Integrity
   ************* All Supply Air Paths passed integrity testing
   ************* Testing Individual Return Air Path Integrity
   ************* All Return Air Paths passed integrity testing
   ************* No node connection errors were found.
   ************* Beginning Simulation
   ** Warning ** AirflowNetwork::Solver::validate_distribution: Heat pump water heater is simulated along with an AirflowNetwork but is not included in the AirflowNetwork.
   ** Warning ** CalcEquipmentFlowRates: "TOTAL HOT WATER LOAD" - Target water temperature is greater than the hot water temperature by (1.17 C)
   **   ~~~   **  Environment=EXTREME_WINTER, at Simulation time=01/06 03:45 - 04:00
   **   ~~~   ** ...target water temperature     = 53.33 C
   **   ~~~   ** ...hot water temperature        = 52.17 C
   **   ~~~   ** ...Target water temperature should be less than or equal to the hot water temperature. Verify temperature setpoints and schedules.
   ** Warning ** SimHVAC: Maximum iterations (20) exceeded for all HVAC loops, at EXTREME_WINTER, 01/06 09:17 - 09:20
   **   ~~~   ** The solution for one or more of the Air Loop HVAC systems did not appear to converge
   **   ~~~   ** Air System Named = CENTRAL SYSTEM did not converge for mass flow rate
   **   ~~~   ** Check values should be zero. Most Recent values listed first.
   **   ~~~   ** Demand-to-Supply interface mass flow rate check value iteration history trace: 5.040425E-002,5.040425E-002,5.040425E-002,5.040425E-002,5.040425E-002,5.040425E-002,5.040425E-002,5.040425E-002,5.040425E-002,5.040425E-002,
   **   ~~~   ** Supply-to-demand interface deck 1 mass flow rate check value iteration history trace: 5.040425E-002,5.040425E-002,5.040425E-002,5.040425E-002,5.040425E-002,5.040425E-002,5.040425E-002,5.040425E-002,5.040425E-002,5.040425E-002,
   **   ~~~   ** Air System Named = CENTRAL SYSTEM did not converge for energy
   **   ~~~   ** Check values should be zero. Most Recent values listed first.
   **   ~~~   ** Demand-to-Supply interface energy check value iteration history trace: 996.093416,996.093416,996.093416,996.093416,996.093416,996.093416,996.093416,996.093416,996.093416,996.093416,
   **   ~~~   ** Supply-to-demand interface deck 1 energy check value iteration history trace: 1807.792028,1807.792028,1807.792028,1807.792028,1807.792028,1807.792028,1807.792028,1807.792028,1807.792028,1807.792027,
   ** Warning ** SimHVAC: Maximum iterations (20) exceeded for all HVAC loops, at EXTREME_WINTER, 01/12 15:15 - 15:30
   **   ~~~   ** The solution for one or more of the Air Loop HVAC systems did not appear to converge
   **   ~~~   ** Air System Named = CENTRAL SYSTEM did not converge for mass flow rate
   **   ~~~   ** Check values should be zero. Most Recent values listed first.
   **   ~~~   ** Demand-to-Supply interface mass flow rate check value iteration history trace: 4.758991E-002,4.758991E-002,4.758991E-002,4.758991E-002,4.758991E-002,4.758991E-002,4.758991E-002,4.758991E-002,4.758991E-002,4.758991E-002,
   **   ~~~   ** Supply-to-demand interface deck 1 mass flow rate check value iteration history trace: 4.758991E-002,4.758991E-002,4.758991E-002,4.758991E-002,4.758991E-002,4.758991E-002,4.758991E-002,4.758991E-002,4.758991E-002,4.758991E-002,
   **   ~~~   ** Air System Named = CENTRAL SYSTEM did not converge for energy
   **   ~~~   ** Check values should be zero. Most Recent values listed first.
   **   ~~~   ** Demand-to-Supply interface energy check value iteration history trace: 933.970014,933.970014,933.970014,933.970014,933.970014,933.970014,933.970014,933.970014,933.970014,933.970014,
   **   ~~~   ** Supply-to-demand interface deck 1 energy check value iteration history trace: 1810.970232,1810.970232,1810.970232,1810.970232,1810.970232,1810.970232,1810.970232,1810.970232,1810.970232,1810.970232,
   ** Warning ** SimHVAC: Maximum iterations (20) exceeded for all HVAC loops, at ANNUAL, 01/03 09:23 - 09:30
   **   ~~~   ** The solution for one or more of the Air Loop HVAC systems did not appear to converge
   **   ~~~   ** Air System Named = CENTRAL SYSTEM did not converge for mass flow rate
   **   ~~~   ** Check values should be zero. Most Recent values listed first.
   **   ~~~   ** Demand-to-Supply interface mass flow rate check value iteration history trace: 4.887147E-002,4.887147E-002,4.887147E-002,4.887147E-002,4.887147E-002,4.887147E-002,4.887147E-002,4.887147E-002,4.887147E-002,4.887147E-002,
   **   ~~~   ** Supply-to-demand interface deck 1 mass flow rate check value iteration history trace: 4.887147E-002,4.887147E-002,4.887147E-002,4.887147E-002,4.887147E-002,4.887147E-002,4.887147E-002,4.887147E-002,4.887147E-002,4.887147E-002,
   **   ~~~   ** Air System Named = CENTRAL SYSTEM did not converge for energy
   **   ~~~   ** Check values should be zero. Most Recent values listed first.
   **   ~~~   ** Demand-to-Supply interface energy check value iteration history trace: 968.616270,968.616270,968.616270,968.616270,968.616270,968.616270,968.616270,968.616270,968.616270,968.616270,
   **   ~~~   ** Supply-to-demand interface deck 1 energy check value iteration history trace: 1839.285188,1839.285188,1839.285188,1839.285188,1839.285188,1839.285188,1839.285188,1839.285188,1839.285188,1839.285188,
   ** Warning ** SimHVAC: Maximum iterations (20) exceeded for all HVAC loops, at ANNUAL, 01/08 13:30 - 13:45
   **   ~~~   ** The solution for one or more of the Air Loop HVAC systems did not appear to converge
   **   ~~~   ** Air System Named = CENTRAL SYSTEM did not converge for mass flow rate
   **   ~~~   ** Check values should be zero. Most Recent values listed first.
   **   ~~~   ** Demand-to-Supply interface mass flow rate check value iteration history trace: 7.557492E-002,7.557492E-002,7.557492E-002,7.557492E-002,7.557492E-002,7.557492E-002,7.557492E-002,7.557492E-002,7.557492E-002,7.557492E-002,
   **   ~~~   ** Supply-to-demand interface deck 1 mass flow rate check value iteration history trace: 7.557492E-002,7.557492E-002,7.557492E-002,7.557492E-002,7.557492E-002,7.557492E-002,7.557492E-002,7.557492E-002,7.557492E-002,7.557492E-002,
   **   ~~~   ** Air System Named = CENTRAL SYSTEM did not converge for energy
   **   ~~~   ** Check values should be zero. Most Recent values listed first.
   **   ~~~   ** Demand-to-Supply interface energy check value iteration history trace: 1497.570524,1497.570524,1497.570524,1497.570524,1497.570524,1497.570523,1497.570523,1497.570523,1497.570523,1497.570523,
   **   ~~~   ** Supply-to-demand interface deck 1 energy check value iteration history trace: 2320.996663,2320.996663,2320.996663,2320.996663,2320.996663,2320.996663,2320.996662,2320.996662,2320.996662,2320.996662,
   ** Warning ** SimHVAC: Maximum iterations (20) exceeded for all HVAC loops, at ANNUAL, 03/22 08:30 - 08:32
   **   ~~~   ** The solution for one or more of the Air Loop HVAC systems did not appear to converge
   **   ~~~   ** Air System Named = CENTRAL SYSTEM did not converge for mass flow rate
   **   ~~~   ** Check values should be zero. Most Recent values listed first.
   **   ~~~   ** Demand-to-Supply interface mass flow rate check value iteration history trace: 6.296751E-002,6.296751E-002,6.296751E-002,6.296751E-002,6.296751E-002,6.296751E-002,6.296751E-002,6.296751E-002,6.296751E-002,6.296751E-002,
   **   ~~~   ** Supply-to-demand interface deck 1 mass flow rate check value iteration history trace: 6.296751E-002,6.296751E-002,6.296751E-002,6.296751E-002,6.296751E-002,6.296751E-002,6.296751E-002,6.296751E-002,6.296751E-002,6.296751E-002,
   **   ~~~   ** Air System Named = CENTRAL SYSTEM did not converge for energy
   **   ~~~   ** Check values should be zero. Most Recent values listed first.
   **   ~~~   ** Demand-to-Supply interface energy check value iteration history trace: 1243.856636,1243.856636,1243.856636,1243.856636,1243.856636,1243.856635,1243.856635,1243.856635,1243.856635,1243.856635,
   **   ~~~   ** Supply-to-demand interface deck 1 energy check value iteration history trace: 2256.417866,2256.417866,2256.417866,2256.417866,2256.417866,2256.417866,2256.417866,2256.417866,2256.417866,2256.417865,
   ** Warning ** SimHVAC: Maximum iterations (20) exceeded for all HVAC loops, at ANNUAL, 04/04 09:10 - 09:15
   **   ~~~   ** The solution for one or more of the Air Loop HVAC systems did not appear to converge
   **   ~~~   ** Air System Named = CENTRAL SYSTEM did not converge for mass flow rate
   **   ~~~   ** Check values should be zero. Most Recent values listed first.
   **   ~~~   ** Demand-to-Supply interface mass flow rate check value iteration history trace: 0.318878,0.318878,0.318878,0.318878,0.318878,0.318878,0.318878,0.318878,0.318878,0.318878,
   **   ~~~   ** Supply-to-demand interface deck 1 mass flow rate check value iteration history trace: 0.318878,0.318878,0.318878,0.318878,0.318878,0.318878,0.318878,0.318878,0.318878,0.318878,
   **   ~~~   ** Air System Named = CENTRAL SYSTEM did not converge for energy
   **   ~~~   ** Check values should be zero. Most Recent values listed first.
   **   ~~~   ** Demand-to-Supply interface energy check value iteration history trace: 7690.854100,7690.854101,7690.854101,7690.854102,7690.854102,7690.854103,7690.854103,7690.854104,7690.854104,7690.854105,
   **   ~~~   ** Supply-to-demand interface deck 1 energy check value iteration history trace: 3712.084916,3712.084916,3712.084917,3712.084917,3712.084917,3712.084917,3712.084918,3712.084918,3712.084918,3712.084918,
   ** Warning ** SimHVAC: Maximum iterations (20) exceeded for all HVAC loops, at ANNUAL, 04/07 17:15 - 17:30
   **   ~~~   ** The solution for one or more of the Air Loop HVAC systems did not appear to converge
   **   ~~~   ** Air System Named = CENTRAL SYSTEM did not converge for mass flow rate
   **   ~~~   ** Check values should be zero. Most Recent values listed first.
   **   ~~~   ** Demand-to-Supply interface mass flow rate check value iteration history trace: 0.173864,0.173864,0.173864,0.173864,0.173864,0.173864,0.173864,0.173864,0.173864,0.173864,
   **   ~~~   ** Supply-to-demand interface deck 1 mass flow rate check value iteration history trace: 0.173864,0.173864,0.173864,0.173864,0.173864,0.173864,0.173864,0.173864,0.173864,0.173864,
   **   ~~~   ** Air System Named = CENTRAL SYSTEM did not converge for energy
   **   ~~~   ** Check values should be zero. Most Recent values listed first.
   **   ~~~   ** Demand-to-Supply interface energy check value iteration history trace: 4236.927349,4236.927349,4236.927349,4236.927350,4236.927350,4236.927350,4236.927350,4236.927351,4236.927351,4236.927351,
   **   ~~~   ** Supply-to-demand interface deck 1 energy check value iteration history trace: 1636.537434,1636.537434,1636.537434,1636.537434,1636.537434,1636.537434,1636.537434,1636.537434,1636.537434,1636.537434,
   ** Warning ** SimHVAC: Maximum iterations (20) exceeded for all HVAC loops, at ANNUAL, 04/25 12:00 - 12:15
   **   ~~~   ** The solution for one or more of the Air Loop HVAC systems did not appear to converge
   **   ~~~   ** Air System Named = CENTRAL SYSTEM did not converge for mass flow rate
   **   ~~~   ** Check values should be zero. Most Recent values listed first.
   **   ~~~   ** Demand-to-Supply interface mass flow rate check value iteration history trace: 9.102714E-002,9.102714E-002,9.102714E-002,9.102714E-002,9.102714E-002,9.102714E-002,9.102714E-002,9.102714E-002,9.102714E-002,9.102714E-002,
   **   ~~~   ** Supply-to-demand interface deck 1 mass flow rate check value iteration history trace: 9.102714E-002,9.102714E-002,9.102714E-002,9.102714E-002,9.102714E-002,9.102714E-002,9.102714E-002,9.102714E-002,9.102714E-002,9.102714E-002,
   **   ~~~   ** Air System Named = CENTRAL SYSTEM did not converge for energy
   **   ~~~   ** Check values should be zero. Most Recent values listed first.
   **   ~~~   ** Demand-to-Supply interface energy check value iteration history trace: 2182.309327,2182.309327,2182.309327,2182.309327,2182.309327,2182.309327,2182.309327,2182.309327,2182.309328,2182.309328,
   **   ~~~   ** Supply-to-demand interface deck 1 energy check value iteration history trace: 778.668707,778.668707,778.668707,778.668707,778.668707,778.668707,778.668707,778.668707,778.668707,778.668707,
   ** Warning ** SimHVAC: Maximum iterations (20) exceeded for all HVAC loops, at ANNUAL, 11/29 05:08 - 05:15
   **   ~~~   ** The solution for one or more of the Air Loop HVAC systems did not appear to converge
   **   ~~~   ** Air System Named = CENTRAL SYSTEM did not converge for mass flow rate
   **   ~~~   ** Check values should be zero. Most Recent values listed first.
   **   ~~~   ** Demand-to-Supply interface mass flow rate check value iteration history trace: 4.760784E-002,4.760784E-002,4.760784E-002,4.760784E-002,4.760784E-002,4.760784E-002,4.760784E-002,4.760784E-002,4.760784E-002,4.760784E-002,
   **   ~~~   ** Supply-to-demand interface deck 1 mass flow rate check value iteration history trace: 4.760784E-002,4.760784E-002,4.760784E-002,4.760784E-002,4.760784E-002,4.760784E-002,4.760784E-002,4.760784E-002,4.760784E-002,4.760784E-002,
   **   ~~~   ** Air System Named = CENTRAL SYSTEM did not converge for energy
   **   ~~~   ** Check values should be zero. Most Recent values listed first.
   **   ~~~   ** Demand-to-Supply interface energy check value iteration history trace: 937.992622,937.992622,937.992622,937.992622,937.992622,937.992622,937.992622,937.992622,937.992622,937.992622,
   **   ~~~   ** Supply-to-demand interface deck 1 energy check value iteration history trace: 1691.431106,1691.431106,1691.431106,1691.431106,1691.431106,1691.431106,1691.431106,1691.431106,1691.431106,1691.431106,
   ** Warning ** SimHVAC: Maximum iterations (20) exceeded for all HVAC loops, at ANNUAL, 12/04 12:08 - 12:15
   **   ~~~   ** The solution for one or more of the Air Loop HVAC systems did not appear to converge
   **   ~~~   ** Air System Named = CENTRAL SYSTEM did not converge for mass flow rate
   **   ~~~   ** Check values should be zero. Most Recent values listed first.
   **   ~~~   ** Demand-to-Supply interface mass flow rate check value iteration history trace: 8.148228E-002,8.148228E-002,8.148228E-002,8.148228E-002,8.148228E-002,8.148228E-002,8.148228E-002,8.148228E-002,8.148228E-002,8.148228E-002,
   **   ~~~   ** Supply-to-demand interface deck 1 mass flow rate check value iteration history trace: 8.148228E-002,8.148228E-002,8.148228E-002,8.148228E-002,8.148228E-002,8.148228E-002,8.148228E-002,8.148228E-002,8.148228E-002,8.148228E-002,
   **   ~~~   ** Air System Named = CENTRAL SYSTEM did not converge for energy
   **   ~~~   ** Check values should be zero. Most Recent values listed first.
   **   ~~~   ** Demand-to-Supply interface energy check value iteration history trace: 1934.153026,1934.153027,1934.153027,1934.153028,1934.153028,1934.153029,1934.153029,1934.153029,1934.153030,1934.153030,
   **   ~~~   ** Supply-to-demand interface deck 1 energy check value iteration history trace: 887.869850,887.869850,887.869850,887.869851,887.869851,887.869851,887.869851,887.869851,887.869852,887.869852,
   ** Warning ** SimHVAC: Maximum iterations (20) exceeded for all HVAC loops, at ANNUAL, 12/16 03:45 - 03:52
   **   ~~~   ** The solution for one or more of the Air Loop HVAC systems did not appear to converge
   **   ~~~   ** Air System Named = CENTRAL SYSTEM did not converge for mass flow rate
   **   ~~~   ** Check values should be zero. Most Recent values listed first.
   **   ~~~   ** Demand-to-Supply interface mass flow rate check value iteration history trace: 7.402062E-002,7.402062E-002,7.402062E-002,7.402062E-002,7.402062E-002,7.402062E-002,7.402062E-002,7.402062E-002,7.402062E-002,7.402062E-002,
   **   ~~~   ** Supply-to-demand interface deck 1 mass flow rate check value iteration history trace: 7.402062E-002,7.402062E-002,7.402062E-002,7.402062E-002,7.402062E-002,7.402062E-002,7.402062E-002,7.402062E-002,7.402062E-002,7.402062E-002,
   **   ~~~   ** Air System Named = CENTRAL SYSTEM did not converge for energy
   **   ~~~   ** Check values should be zero. Most Recent values listed first.
   **   ~~~   ** Demand-to-Supply interface energy check value iteration history trace: 1401.694028,1401.694027,1401.694027,1401.694027,1401.694027,1401.694027,1401.694027,1401.694027,1401.694027,1401.694027,
   **   ~~~   ** Supply-to-demand interface deck 1 energy check value iteration history trace: 2188.960285,2188.960285,2188.960284,2188.960284,2188.960284,2188.960284,2188.960284,2188.960284,2188.960284,2188.960284,
   ************* Simulation Error Summary *************
   ** Warning ** The following Report Variables were requested but not generated -- check.rdd file
   **   ~~~   ** Either the IDF did not contain these elements, the variable name is misspelled,
   **   ~~~   ** or the requested variable is an advanced output which requires Output : Diagnostics, DisplayAdvancedReportVariables;
   ************* Key=*, VarName=BASEBOARD TOTAL HEATING ENERGY, Frequency=
   ************* Key=*, VarName=WATER HEATER NATURALGAS ENERGY, Frequency=
   ************* Key=*, VarName=COOLING COIL TOTAL HEATING ENERGY, Frequency=
   ************* There are 34 unused schedules in input.
   ************* There are 388 unused week schedules in input.
   ************* There are 396 unused day schedules in input.
   ************* Use Output:Diagnostics,DisplayUnusedSchedules; to see them.
   *************
   ************* ===== Recurring Error Summary =====
   ************* The following recurring error messages occurred.
   *************
   *************  ** Warning ** "TOTAL HOT WATER LOAD" - Target water temperature should be less than or equal to the hot water temperature error continues...
   *************  **   ~~~   **   This error occurred 63991 total times;
   *************  **   ~~~   **   during Warmup 0 times;
   *************  **   ~~~   **   during Sizing 0 times.
   *************  **   ~~~   **   Max=6.268722  Min=4.117819E-004
   *************
   *************
   ************* ===== Final Error Summary =====
   ************* The following error categories occurred.  Consider correcting or noting.
   ************* Nominally Unused Constructions
   ************* ..The nominally unused constructions warning is provided to alert you to potential conditions that can cause
   ************* ..extra time during simulation. Each construction is calculated by the algorithm indicated in the HeatBalanceAlgorithm
   ************* ..object. You may remove the constructions indicated (when you use the DisplayExtraWarnings option).
   *************
   ************* EnergyPlus Warmup Error Summary. During Warmup: 1 Warning; 0 Severe Errors.
   ************* EnergyPlus Sizing Error Summary. During Sizing: 4 Warning; 0 Severe Errors.
   ************* EnergyPlus Completed Successfully-- 64019 Warning; 0 Severe Errors; Elapsed Time=00hr 01min 35.99sec
