Program Version,EnergyPlus, Version 22.2.0-c249759bad, YMD=2023.09.01 18:58,
   ************* Beginning Zone Sizing Calculations
   ** Warning ** ProcessScheduleInput: Schedule:Constant="ALWAYS ON DISCRETE", Schedule Type Limits Name="ONOFF" not found -- will not be validated
   ** Warning ** Foundation:Kiva="KIVA FOUNDATION", no Interior Horizontal Insulation Material Name defined
   **   ~~~   ** Interior Horizontal Insulation Depth will not be used.
   ** Warning ** CheckUsedConstructions: There are 15 nominally unused constructions in input.
   **   ~~~   ** Each Unused construction is shown.
   ************* Construction=INTERIOR FLOOR
   ************* Construction=INTERIOR WINDOW
   ************* Construction=EXTERIOR DOOR
   ************* Construction=INTERIOR DOOR
   ************* Construction=GABLE CONSTRUCTION
   ************* Construction=CRAWL_FLOOR
   ************* Construction=INSULATED PIPE
   ************* Construction=PLAIN PIPE
   ************* Construction=TDD PIPE
   ************* Construction=TDD DOME
   ************* Construction=TDD DIFFUSER
   ************* Construction=CRAWL WALL
   ************* Construction=CEILING-FLOOR-LAYER
   ************* Construction=SLAB CONSTRUCTION W FULL R10 INSULATION
   ************* Construction=SLAB CONSTRUCTION W FULL R5 INSULATION
   ** Warning ** GetDXCoils: Coil:Heating:DX:SingleSpeed="DX_HEATING_COIL" curve values
   **   ~~~   ** ... Defrost Energy Input Ratio Function of Temperature Curve Name = DEFROSTEIR output is not equal to 1.0 (+ or - 10%) at rated conditions.
   **   ~~~   ** ... Curve output at rated conditions = 0.152
   ************* Beginning System Sizing Calculations
   ************* Beginning Plant Sizing Calculations
   ** Warning ** SizeDXCoil Coil:Cooling:DX:SingleSpeed DX_COOLING_COIL
   **   ~~~   ** ...Gross Rated Total Cooling Capacity [W] will be limited by the maximum rated volume flow per rated total capacity ratio.
   **   ~~~   ** ...DX coil volume flow rate ( m3/s ) = 0.414440
   **   ~~~   ** ...Requested capacity ( W ) = 6536.993
   **   ~~~   ** ...Requested flow/capacity ratio ( m3/s/W ) = 6.339E-005
   **   ~~~   ** ...Maximum flow/capacity ratio ( m3/s/W ) = 6.041E-005
   **   ~~~   ** ...Adjusted capacity ( W ) = 6860.454
   ** Warning ** Coil:WaterHeating:AirToWaterHeatPump:Wrapped "HEAT PUMP WATER HEATER EVAPORATOR": Rated air volume flow rate per watt of rated total water heating capacity is out of range
   **   ~~~   ** Min Rated Vol Flow Per Watt=[4.027E-005], Rated Vol Flow Per Watt=[1.510E-004], Max Rated Vol Flow Per Watt=[8.056E-005]. See Input-Output Reference Manual for valid range.
   ************* SizeFan: : Potential issue with equipment sizing for Fan:OnOff HEAT PUMP WATER HEATER FAN
   **   ~~~   ** User-Specified Maximum Flow Rate [m3/s] = 0.22653
   **   ~~~   ** differs from Design Size Maximum Flow Rate [m3/s] = 7.55250E-002
   **   ~~~   ** This may, or may not, indicate mismatched component sizes.
   **   ~~~   ** Verify that the value entered is intended and is consistent with other components.
   ** Warning ** Water heater = WATER HEATER TANK:  Recovery Efficiency and Energy Factor could not be calculated during the test for standard ratings
   **   ~~~   ** Setpoint was never recovered and/or heater never turned on
   ** Warning ** Check input. Pump nominal power or motor efficiency is set to 0, for pump=MAINS PRESSURE
   ** Warning ** Output:Meter: invalid Key Name="ELECTRIC_RANGE:INTERIOREQUIPMENT:ELECTRICITY" - not found.
   ** Warning ** Output:Meter: invalid Key Name="ELECTRIC_DRYER:INTERIOREQUIPMENT:ELECTRICITY" - not found.
   ** Warning ** Output:Meter: invalid Key Name="HEATRECOVERY:ELECTRICITY" - not found.
   ** Warning ** Output:Meter: invalid Key Name="HEATING:NATURALGAS" - not found.
   ** Warning ** Output:Meter: invalid Key Name="WATERSYSTEMS:NATURALGAS" - not found.
   ** Warning ** Output:Meter: invalid Key Name="PROPANE:FACILITY" - not found.
   ** Warning ** Output:Meter: invalid Key Name="HEATING:PROPANE" - not found.
   ************* Testing Individual Branch Integrity
   ************* All Branches passed integrity testing
   ************* Testing Individual Supply Air Path Integrity
   ************* All Supply Air Paths passed integrity testing
   ************* Testing Individual Return Air Path Integrity
   ************* All Return Air Paths passed integrity testing
   ************* No node connection errors were found.
   ************* Beginning Simulation
   ** Warning ** AirflowNetwork::Solver::validate_distribution: Heat pump water heater is simulated along with an AirflowNetwork but is not included in the AirflowNetwork.
   ** Warning ** CalcEquipmentFlowRates: "TOTAL HOT WATER LOAD" - Target water temperature is greater than the hot water temperature by (1.91 C)
   **   ~~~   **  Environment=EXTREME_WINTER, at Simulation time=12/15 03:45 - 04:00
   **   ~~~   ** ...target water temperature     = 53.33 C
   **   ~~~   ** ...hot water temperature        = 51.42 C
   **   ~~~   ** ...Target water temperature should be less than or equal to the hot water temperature. Verify temperature setpoints and schedules.
   ** Warning ** SimHVAC: Maximum iterations (20) exceeded for all HVAC loops, at ANNUAL, 01/02 18:19 - 18:22
   **   ~~~   ** The solution for one or more of the Air Loop HVAC systems did not appear to converge
   **   ~~~   ** Air System Named = CENTRAL SYSTEM did not converge for mass flow rate
   **   ~~~   ** Check values should be zero. Most Recent values listed first.
   **   ~~~   ** Demand-to-Supply interface mass flow rate check value iteration history trace: 8.823965E-002,8.823965E-002,8.823965E-002,8.823965E-002,8.823965E-002,8.823965E-002,8.823965E-002,8.823965E-002,8.823965E-002,8.823965E-002,
   **   ~~~   ** Supply-to-demand interface deck 1 mass flow rate check value iteration history trace: 8.823965E-002,8.823965E-002,8.823965E-002,8.823965E-002,8.823965E-002,8.823965E-002,8.823965E-002,8.823965E-002,8.823965E-002,8.823965E-002,
   **   ~~~   ** Air System Named = CENTRAL SYSTEM did not converge for energy
   **   ~~~   ** Check values should be zero. Most Recent values listed first.
   **   ~~~   ** Demand-to-Supply interface energy check value iteration history trace: 1740.787151,1740.787151,1740.787151,1740.787151,1740.787151,1740.787151,1740.787151,1740.787151,1740.787150,1740.787150,
   **   ~~~   ** Supply-to-demand interface deck 1 energy check value iteration history trace: 2634.131610,2634.131610,2634.131609,2634.131609,2634.131609,2634.131609,2634.131609,2634.131609,2634.131608,2634.131608,
   ** Warning ** SimHVAC: Maximum iterations (20) exceeded for all HVAC loops, at ANNUAL, 01/13 12:45 - 13:00
   **   ~~~   ** The solution for one or more of the Air Loop HVAC systems did not appear to converge
   **   ~~~   ** Air System Named = CENTRAL SYSTEM did not converge for mass flow rate
   **   ~~~   ** Check values should be zero. Most Recent values listed first.
   **   ~~~   ** Demand-to-Supply interface mass flow rate check value iteration history trace: 7.236581E-002,7.236581E-002,7.236581E-002,7.236581E-002,7.236581E-002,7.236581E-002,7.236581E-002,7.236581E-002,7.236581E-002,7.236581E-002,
   **   ~~~   ** Supply-to-demand interface deck 1 mass flow rate check value iteration history trace: 7.236581E-002,7.236581E-002,7.236581E-002,7.236581E-002,7.236581E-002,7.236581E-002,7.236581E-002,7.236581E-002,7.236581E-002,7.236581E-002,
   **   ~~~   ** Air System Named = CENTRAL SYSTEM did not converge for energy
   **   ~~~   ** Check values should be zero. Most Recent values listed first.
   **   ~~~   ** Demand-to-Supply interface energy check value iteration history trace: 1426.755305,1426.755305,1426.755305,1426.755305,1426.755305,1426.755305,1426.755305,1426.755305,1426.755305,1426.755305,
   **   ~~~   ** Supply-to-demand interface deck 1 energy check value iteration history trace: 2221.941475,2221.941475,2221.941475,2221.941474,2221.941474,2221.941474,2221.941474,2221.941474,2221.941474,2221.941474,
   ** Warning ** SimHVAC: Maximum iterations (20) exceeded for all HVAC loops, at ANNUAL, 01/30 13:30 - 13:34
   **   ~~~   ** The solution for one or more of the Air Loop HVAC systems did not appear to converge
   **   ~~~   ** Air System Named = CENTRAL SYSTEM did not converge for mass flow rate
   **   ~~~   ** Check values should be zero. Most Recent values listed first.
   **   ~~~   ** Demand-to-Supply interface mass flow rate check value iteration history trace: 5.912651E-002,5.912651E-002,5.912651E-002,5.912651E-002,5.912651E-002,5.912651E-002,5.912651E-002,5.912651E-002,5.912651E-002,5.912651E-002,
   **   ~~~   ** Supply-to-demand interface deck 1 mass flow rate check value iteration history trace: 5.912651E-002,5.912651E-002,5.912651E-002,5.912651E-002,5.912651E-002,5.912651E-002,5.912651E-002,5.912651E-002,5.912651E-002,5.912651E-002,
   **   ~~~   ** Air System Named = CENTRAL SYSTEM did not converge for energy
   **   ~~~   ** Check values should be zero. Most Recent values listed first.
   **   ~~~   ** Demand-to-Supply interface energy check value iteration history trace: 1171.763121,1171.763121,1171.763121,1171.763121,1171.763121,1171.763121,1171.763120,1171.763120,1171.763120,1171.763120,
   **   ~~~   ** Supply-to-demand interface deck 1 energy check value iteration history trace: 2011.045512,2011.045512,2011.045512,2011.045512,2011.045512,2011.045512,2011.045512,2011.045512,2011.045512,2011.045511,
   ** Warning ** SimHVAC: Maximum iterations (20) exceeded for all HVAC loops, at ANNUAL, 03/07 03:10 - 03:15
   **   ~~~   ** The solution for one or more of the Air Loop HVAC systems did not appear to converge
   **   ~~~   ** Air System Named = CENTRAL SYSTEM did not converge for mass flow rate
   **   ~~~   ** Check values should be zero. Most Recent values listed first.
   **   ~~~   ** Demand-to-Supply interface mass flow rate check value iteration history trace: 6.290642E-002,6.290642E-002,6.290642E-002,6.290642E-002,6.290642E-002,6.290642E-002,6.290642E-002,6.290642E-002,6.290642E-002,6.290642E-002,
   **   ~~~   ** Supply-to-demand interface deck 1 mass flow rate check value iteration history trace: 6.290642E-002,6.290642E-002,6.290642E-002,6.290642E-002,6.290642E-002,6.290642E-002,6.290642E-002,6.290642E-002,6.290642E-002,6.290642E-002,
   **   ~~~   ** Air System Named = CENTRAL SYSTEM did not converge for energy
   **   ~~~   ** Check values should be zero. Most Recent values listed first.
   **   ~~~   ** Demand-to-Supply interface energy check value iteration history trace: 1187.224400,1187.224400,1187.224400,1187.224400,1187.224400,1187.224400,1187.224400,1187.224400,1187.224399,1187.224399,
   **   ~~~   ** Supply-to-demand interface deck 1 energy check value iteration history trace: 2070.089867,2070.089867,2070.089867,2070.089867,2070.089867,2070.089867,2070.089867,2070.089867,2070.089867,2070.089867,
   ** Warning ** SimHVAC: Maximum iterations (20) exceeded for all HVAC loops, at ANNUAL, 03/17 08:15 - 08:30
   **   ~~~   ** The solution for one or more of the Air Loop HVAC systems did not appear to converge
   **   ~~~   ** Air System Named = CENTRAL SYSTEM did not converge for mass flow rate
   **   ~~~   ** Check values should be zero. Most Recent values listed first.
   **   ~~~   ** Demand-to-Supply interface mass flow rate check value iteration history trace: 6.339496E-002,6.339496E-002,6.339496E-002,6.339496E-002,6.339496E-002,6.339496E-002,6.339496E-002,6.339496E-002,6.339496E-002,6.339496E-002,
   **   ~~~   ** Supply-to-demand interface deck 1 mass flow rate check value iteration history trace: 6.339496E-002,6.339496E-002,6.339496E-002,6.339496E-002,6.339496E-002,6.339496E-002,6.339496E-002,6.339496E-002,6.339496E-002,6.339496E-002,
   **   ~~~   ** Air System Named = CENTRAL SYSTEM did not converge for energy
   **   ~~~   ** Check values should be zero. Most Recent values listed first.
   **   ~~~   ** Demand-to-Supply interface energy check value iteration history trace: 1243.086507,1243.086507,1243.086507,1243.086507,1243.086507,1243.086507,1243.086507,1243.086507,1243.086507,1243.086507,
   **   ~~~   ** Supply-to-demand interface deck 1 energy check value iteration history trace: 2178.394559,2178.394559,2178.394559,2178.394559,2178.394559,2178.394559,2178.394559,2178.394559,2178.394558,2178.394558,
   ** Warning ** SimHVAC: Maximum iterations (20) exceeded for all HVAC loops, at ANNUAL, 03/22 09:45 - 09:50
   **   ~~~   ** The solution for one or more of the Air Loop HVAC systems did not appear to converge
   **   ~~~   ** Air System Named = CENTRAL SYSTEM did not converge for mass flow rate
   **   ~~~   ** Check values should be zero. Most Recent values listed first.
   **   ~~~   ** Demand-to-Supply interface mass flow rate check value iteration history trace: 5.480609E-002,5.480609E-002,5.480609E-002,5.480609E-002,5.480609E-002,5.480609E-002,5.480609E-002,5.480609E-002,5.480609E-002,5.480609E-002,
   **   ~~~   ** Supply-to-demand interface deck 1 mass flow rate check value iteration history trace: 5.480609E-002,5.480609E-002,5.480609E-002,5.480609E-002,5.480609E-002,5.480609E-002,5.480609E-002,5.480609E-002,5.480609E-002,5.480609E-002,
   **   ~~~   ** Air System Named = CENTRAL SYSTEM did not converge for energy
   **   ~~~   ** Check values should be zero. Most Recent values listed first.
   **   ~~~   ** Demand-to-Supply interface energy check value iteration history trace: 1086.030988,1086.030988,1086.030988,1086.030988,1086.030988,1086.030988,1086.030988,1086.030988,1086.030988,1086.030988,
   **   ~~~   ** Supply-to-demand interface deck 1 energy check value iteration history trace: 1952.132451,1952.132451,1952.132451,1952.132451,1952.132451,1952.132451,1952.132451,1952.132451,1952.132450,1952.132450,
   ** Warning ** SimHVAC: Maximum iterations (20) exceeded for all HVAC loops, at ANNUAL, 03/24 10:30 - 10:45
   **   ~~~   ** The solution for one or more of the Air Loop HVAC systems did not appear to converge
   **   ~~~   ** Air System Named = CENTRAL SYSTEM did not converge for mass flow rate
   **   ~~~   ** Check values should be zero. Most Recent values listed first.
   **   ~~~   ** Demand-to-Supply interface mass flow rate check value iteration history trace: 8.772424E-002,8.772424E-002,8.772424E-002,8.772424E-002,8.772424E-002,8.772424E-002,8.772424E-002,8.772424E-002,8.772424E-002,8.772424E-002,
   **   ~~~   ** Supply-to-demand interface deck 1 mass flow rate check value iteration history trace: 8.772424E-002,8.772424E-002,8.772424E-002,8.772424E-002,8.772424E-002,8.772424E-002,8.772424E-002,8.772424E-002,8.772424E-002,8.772424E-002,
   **   ~~~   ** Air System Named = CENTRAL SYSTEM did not converge for energy
   **   ~~~   ** Check values should be zero. Most Recent values listed first.
   **   ~~~   ** Demand-to-Supply interface energy check value iteration history trace: 1739.400975,1739.400975,1739.400975,1739.400974,1739.400974,1739.400974,1739.400974,1739.400974,1739.400974,1739.400974,
   **   ~~~   ** Supply-to-demand interface deck 1 energy check value iteration history trace: 2723.016455,2723.016455,2723.016455,2723.016454,2723.016454,2723.016454,2723.016454,2723.016454,2723.016454,2723.016453,
   ** Warning ** SimHVAC: Maximum iterations (20) exceeded for all HVAC loops, at ANNUAL, 03/26 14:45 - 15:00
   **   ~~~   ** The solution for one or more of the Air Loop HVAC systems did not appear to converge
   **   ~~~   ** Air System Named = CENTRAL SYSTEM did not converge for mass flow rate
   **   ~~~   ** Check values should be zero. Most Recent values listed first.
   **   ~~~   ** Demand-to-Supply interface mass flow rate check value iteration history trace: 0.105452,0.105452,0.105452,0.105452,0.105452,0.105452,0.105452,0.105452,0.105452,0.105452,
   **   ~~~   ** Supply-to-demand interface deck 1 mass flow rate check value iteration history trace: 0.105452,0.105452,0.105452,0.105452,0.105452,0.105452,0.105452,0.105452,0.105452,0.105452,
   **   ~~~   ** Air System Named = CENTRAL SYSTEM did not converge for energy
   **   ~~~   ** Check values should be zero. Most Recent values listed first.
   **   ~~~   ** Demand-to-Supply interface energy check value iteration history trace: 2089.875687,2089.875687,2089.875687,2089.875687,2089.875687,2089.875687,2089.875687,2089.875686,2089.875686,2089.875686,
   **   ~~~   ** Supply-to-demand interface deck 1 energy check value iteration history trace: 3159.768720,3159.768719,3159.768719,3159.768719,3159.768719,3159.768719,3159.768719,3159.768718,3159.768718,3159.768718,
   ** Warning ** SimHVAC: Maximum iterations (20) exceeded for all HVAC loops, at ANNUAL, 04/30 15:45 - 15:52
   **   ~~~   ** The solution for one or more of the Air Loop HVAC systems did not appear to converge
   **   ~~~   ** Air System Named = CENTRAL SYSTEM did not converge for mass flow rate
   **   ~~~   ** Check values should be zero. Most Recent values listed first.
   **   ~~~   ** Demand-to-Supply interface mass flow rate check value iteration history trace: 7.163410E-002,7.163410E-002,7.163410E-002,7.163410E-002,7.163410E-002,7.163410E-002,7.163410E-002,7.163410E-002,7.163410E-002,7.163410E-002,
   **   ~~~   ** Supply-to-demand interface deck 1 mass flow rate check value iteration history trace: 7.163410E-002,7.163410E-002,7.163410E-002,7.163410E-002,7.163410E-002,7.163410E-002,7.163410E-002,7.163410E-002,7.163410E-002,7.163410E-002,
   **   ~~~   ** Air System Named = CENTRAL SYSTEM did not converge for energy
   **   ~~~   ** Check values should be zero. Most Recent values listed first.
   **   ~~~   ** Demand-to-Supply interface energy check value iteration history trace: 1419.317866,1419.317866,1419.317866,1419.317866,1419.317866,1419.317866,1419.317866,1419.317866,1419.317866,1419.317866,
   **   ~~~   ** Supply-to-demand interface deck 1 energy check value iteration history trace: 2417.476858,2417.476858,2417.476858,2417.476858,2417.476858,2417.476858,2417.476858,2417.476857,2417.476857,2417.476857,
   ** Warning ** SimHVAC: Maximum iterations (20) exceeded for all HVAC loops, at ANNUAL, 05/26 08:47 - 08:50
   **   ~~~   ** The solution for one or more of the Air Loop HVAC systems did not appear to converge
   **   ~~~   ** Air System Named = CENTRAL SYSTEM did not converge for mass flow rate
   **   ~~~   ** Check values should be zero. Most Recent values listed first.
   **   ~~~   ** Demand-to-Supply interface mass flow rate check value iteration history trace: 5.115158E-002,5.115158E-002,5.115158E-002,5.115158E-002,5.115158E-002,5.115158E-002,5.115158E-002,5.115158E-002,5.115158E-002,5.115158E-002,
   **   ~~~   ** Supply-to-demand interface deck 1 mass flow rate check value iteration history trace: 5.115158E-002,5.115158E-002,5.115158E-002,5.115158E-002,5.115158E-002,5.115158E-002,5.115158E-002,5.115158E-002,5.115158E-002,5.115158E-002,
   **   ~~~   ** Air System Named = CENTRAL SYSTEM did not converge for energy
   **   ~~~   ** Check values should be zero. Most Recent values listed first.
   **   ~~~   ** Demand-to-Supply interface energy check value iteration history trace: 1201.535078,1201.535079,1201.535079,1201.535079,1201.535080,1201.535080,1201.535080,1201.535081,1201.535081,1201.535081,
   **   ~~~   ** Supply-to-demand interface deck 1 energy check value iteration history trace: 628.227064,628.227065,628.227065,628.227065,628.227065,628.227065,628.227065,628.227066,628.227066,628.227066,
   ** Warning ** SimHVAC: Maximum iterations (20) exceeded for all HVAC loops, at ANNUAL, 11/20 19:35 - 19:40
   **   ~~~   ** The solution for one or more of the Air Loop HVAC systems did not appear to converge
   **   ~~~   ** Air System Named = CENTRAL SYSTEM did not converge for mass flow rate
   **   ~~~   ** Check values should be zero. Most Recent values listed first.
   **   ~~~   ** Demand-to-Supply interface mass flow rate check value iteration history trace: 2.937865E-002,2.937865E-002,2.937865E-002,2.937865E-002,2.937865E-002,2.937865E-002,2.937865E-002,2.937865E-002,2.937865E-002,2.937865E-002,
   **   ~~~   ** Supply-to-demand interface deck 1 mass flow rate check value iteration history trace: 2.937865E-002,2.937865E-002,2.937865E-002,2.937865E-002,2.937865E-002,2.937865E-002,2.937865E-002,2.937865E-002,2.937865E-002,2.937865E-002,
   **   ~~~   ** Air System Named = CENTRAL SYSTEM did not converge for energy
   **   ~~~   ** Check values should be zero. Most Recent values listed first.
   **   ~~~   ** Demand-to-Supply interface energy check value iteration history trace: 581.806231,581.806231,581.806231,581.806231,581.806231,581.806231,581.806231,581.806231,581.806231,581.806231,
   **   ~~~   ** Supply-to-demand interface deck 1 energy check value iteration history trace: 877.778435,877.778435,877.778435,877.778435,877.778435,877.778435,877.778435,877.778434,877.778434,877.778434,
   ** Warning ** SimHVAC: Maximum iterations (20) exceeded for all HVAC loops, at ANNUAL, 11/23 12:45 - 12:50
   **   ~~~   ** The solution for one or more of the Air Loop HVAC systems did not appear to converge
   **   ~~~   ** Air System Named = CENTRAL SYSTEM did not converge for mass flow rate
   **   ~~~   ** Check values should be zero. Most Recent values listed first.
   **   ~~~   ** Demand-to-Supply interface mass flow rate check value iteration history trace: 6.530081E-002,6.530081E-002,6.530081E-002,6.530081E-002,6.530081E-002,6.530081E-002,6.530081E-002,6.530081E-002,6.530081E-002,6.530081E-002,
   **   ~~~   ** Supply-to-demand interface deck 1 mass flow rate check value iteration history trace: 6.530081E-002,6.530081E-002,6.530081E-002,6.530081E-002,6.530081E-002,6.530081E-002,6.530081E-002,6.530081E-002,6.530081E-002,6.530081E-002,
   **   ~~~   ** Air System Named = CENTRAL SYSTEM did not converge for energy
   **   ~~~   ** Check values should be zero. Most Recent values listed first.
   **   ~~~   ** Demand-to-Supply interface energy check value iteration history trace: 1294.015917,1294.015917,1294.015917,1294.015916,1294.015916,1294.015916,1294.015916,1294.015916,1294.015916,1294.015916,
   **   ~~~   ** Supply-to-demand interface deck 1 energy check value iteration history trace: 2190.836050,2190.836050,2190.836050,2190.836050,2190.836050,2190.836050,2190.836049,2190.836049,2190.836049,2190.836049,
   ** Warning ** SimHVAC: Maximum iterations (20) exceeded for all HVAC loops, at ANNUAL, 12/22 17:10 - 17:15
   **   ~~~   ** The solution for one or more of the Air Loop HVAC systems did not appear to converge
   **   ~~~   ** Air System Named = CENTRAL SYSTEM did not converge for mass flow rate
   **   ~~~   ** Check values should be zero. Most Recent values listed first.
   **   ~~~   ** Demand-to-Supply interface mass flow rate check value iteration history trace: 5.772587E-002,5.772587E-002,5.772587E-002,5.772587E-002,5.772587E-002,5.772587E-002,5.772587E-002,5.772587E-002,5.772587E-002,5.772587E-002,
   **   ~~~   ** Supply-to-demand interface deck 1 mass flow rate check value iteration history trace: 5.772587E-002,5.772587E-002,5.772587E-002,5.772587E-002,5.772587E-002,5.772587E-002,5.772587E-002,5.772587E-002,5.772587E-002,5.772587E-002,
   **   ~~~   ** Air System Named = CENTRAL SYSTEM did not converge for energy
   **   ~~~   ** Check values should be zero. Most Recent values listed first.
   **   ~~~   ** Demand-to-Supply interface energy check value iteration history trace: 1136.210902,1136.210902,1136.210902,1136.210902,1136.210902,1136.210902,1136.210902,1136.210902,1136.210902,1136.210902,
   **   ~~~   ** Supply-to-demand interface deck 1 energy check value iteration history trace: 1991.936028,1991.936028,1991.936028,1991.936028,1991.936028,1991.936028,1991.936028,1991.936027,1991.936027,1991.936027,
   ************* Simulation Error Summary *************
   ** Warning ** The following Report Variables were requested but not generated -- check.rdd file
   **   ~~~   ** Either the IDF did not contain these elements, the variable name is misspelled,
   **   ~~~   ** or the requested variable is an advanced output which requires Output : Diagnostics, DisplayAdvancedReportVariables;
   ************* Key=*, VarName=BASEBOARD TOTAL HEATING ENERGY, Frequency=
   ************* Key=*, VarName=WATER HEATER NATURALGAS ENERGY, Frequency=
   ************* Key=*, VarName=COOLING COIL TOTAL HEATING ENERGY, Frequency=
   ************* There are 34 unused schedules in input.
   ************* There are 388 unused week schedules in input.
   ************* There are 396 unused day schedules in input.
   ************* Use Output:Diagnostics,DisplayUnusedSchedules; to see them.
   *************
   ************* ===== Recurring Error Summary =====
   ************* The following recurring error messages occurred.
   *************
   *************  ** Warning ** "TOTAL HOT WATER LOAD" - Target water temperature should be less than or equal to the hot water temperature error continues...
   *************  **   ~~~   **   This error occurred 57315 total times;
   *************  **   ~~~   **   during Warmup 0 times;
   *************  **   ~~~   **   during Sizing 0 times.
   *************  **   ~~~   **   Max=6.614732  Min=9.884991E-004
   *************
   *************
   ************* ===== Final Error Summary =====
   ************* The following error categories occurred.  Consider correcting or noting.
   ************* Nominally Unused Constructions
   ************* ..The nominally unused constructions warning is provided to alert you to potential conditions that can cause
   ************* ..extra time during simulation. Each construction is calculated by the algorithm indicated in the HeatBalanceAlgorithm
   ************* ..object. You may remove the constructions indicated (when you use the DisplayExtraWarnings option).
   *************
   ************* EnergyPlus Warmup Error Summary. During Warmup: 1 Warning; 0 Severe Errors.
   ************* EnergyPlus Sizing Error Summary. During Sizing: 4 Warning; 0 Severe Errors.
   ************* EnergyPlus Completed Successfully-- 57346 Warning; 0 Severe Errors; Elapsed Time=00hr 01min 34.93sec
