Program Version,EnergyPlus, Version 22.2.0-c249759bad, YMD=2023.09.01 15:08,
   ************* Beginning Zone Sizing Calculations
   ** Warning ** ProcessScheduleInput: Schedule:Constant="ALWAYS ON DISCRETE", Schedule Type Limits Name="ONOFF" not found -- will not be validated
   ** Warning ** Foundation:Kiva="KIVA FOUNDATION", no Interior Horizontal Insulation Material Name defined
   **   ~~~   ** Interior Horizontal Insulation Depth will not be used.
   ** Warning ** CheckUsedConstructions: There are 15 nominally unused constructions in input.
   **   ~~~   ** Each Unused construction is shown.
   ************* Construction=INTERIOR FLOOR
   ************* Construction=INTERIOR WINDOW
   ************* Construction=EXTERIOR DOOR
   ************* Construction=INTERIOR DOOR
   ************* Construction=GABLE CONSTRUCTION
   ************* Construction=CRAWL_FLOOR
   ************* Construction=INSULATED PIPE
   ************* Construction=PLAIN PIPE
   ************* Construction=TDD PIPE
   ************* Construction=TDD DOME
   ************* Construction=TDD DIFFUSER
   ************* Construction=CRAWL WALL
   ************* Construction=CEILING-FLOOR-LAYER
   ************* Construction=SLAB CONSTRUCTION W FULL R10 INSULATION
   ************* Construction=SLAB CONSTRUCTION W FULL R5 INSULATION
   ** Warning ** GetDXCoils: Coil:Heating:DX:SingleSpeed="DX_HEATING_COIL" curve values
   **   ~~~   ** ... Defrost Energy Input Ratio Function of Temperature Curve Name = DEFROSTEIR output is not equal to 1.0 (+ or - 10%) at rated conditions.
   **   ~~~   ** ... Curve output at rated conditions = 0.152
   ************* Beginning System Sizing Calculations
   ************* Beginning Plant Sizing Calculations
   ** Warning ** SizeDXCoil Coil:Cooling:DX:SingleSpeed DX_COOLING_COIL
   **   ~~~   ** ...Gross Rated Total Cooling Capacity [W] will be limited by the maximum rated volume flow per rated total capacity ratio.
   **   ~~~   ** ...DX coil volume flow rate ( m3/s ) = 0.403085
   **   ~~~   ** ...Requested capacity ( W ) = 6208.631
   **   ~~~   ** ...Requested flow/capacity ratio ( m3/s/W ) = 6.492E-005
   **   ~~~   ** ...Maximum flow/capacity ratio ( m3/s/W ) = 6.041E-005
   **   ~~~   ** ...Adjusted capacity ( W ) = 6672.488
   ** Warning ** Coil:WaterHeating:AirToWaterHeatPump:Wrapped "HEAT PUMP WATER HEATER EVAPORATOR": Rated air volume flow rate per watt of rated total water heating capacity is out of range
   **   ~~~   ** Min Rated Vol Flow Per Watt=[4.027E-005], Rated Vol Flow Per Watt=[1.386E-004], Max Rated Vol Flow Per Watt=[8.056E-005]. See Input-Output Reference Manual for valid range.
   ** Warning ** Water heater = WATER HEATER TANK:  Recovery Efficiency and Energy Factor could not be calculated during the test for standard ratings
   **   ~~~   ** Setpoint was never recovered and/or heater never turned on
   ** Warning ** Check input. Pump nominal power or motor efficiency is set to 0, for pump=MAINS PRESSURE
   ** Warning ** Output:Meter: invalid Key Name="ELECTRIC_RANGE:INTERIOREQUIPMENT:ELECTRICITY" - not found.
   ** Warning ** Output:Meter: invalid Key Name="ELECTRIC_DRYER:INTERIOREQUIPMENT:ELECTRICITY" - not found.
   ** Warning ** Output:Meter: invalid Key Name="HEATRECOVERY:ELECTRICITY" - not found.
   ** Warning ** Output:Meter: invalid Key Name="HEATING:NATURALGAS" - not found.
   ** Warning ** Output:Meter: invalid Key Name="WATERSYSTEMS:NATURALGAS" - not found.
   ** Warning ** Output:Meter: invalid Key Name="PROPANE:FACILITY" - not found.
   ** Warning ** Output:Meter: invalid Key Name="HEATING:PROPANE" - not found.
   ************* Testing Individual Branch Integrity
   ************* All Branches passed integrity testing
   ************* Testing Individual Supply Air Path Integrity
   ************* All Supply Air Paths passed integrity testing
   ************* Testing Individual Return Air Path Integrity
   ************* All Return Air Paths passed integrity testing
   ************* No node connection errors were found.
   ************* Beginning Simulation
   ** Warning ** AirflowNetwork::Solver::validate_distribution: Heat pump water heater is simulated along with an AirflowNetwork but is not included in the AirflowNetwork.
   ** Warning ** CalcEquipmentFlowRates: "TOTAL HOT WATER LOAD" - Target water temperature is greater than the hot water temperature by (1.63 C)
   **   ~~~   **  Environment=EXTREME_WINTER, at Simulation time=01/27 06:00 - 06:15
   **   ~~~   ** ...target water temperature     = 53.33 C
   **   ~~~   ** ...hot water temperature        = 51.70 C
   **   ~~~   ** ...Target water temperature should be less than or equal to the hot water temperature. Verify temperature setpoints and schedules.
   ** Warning ** SimHVAC: Maximum iterations (20) exceeded for all HVAC loops, at ANNUAL, 02/13 20:08 - 20:15
   **   ~~~   ** The solution for one or more of the Air Loop HVAC systems did not appear to converge
   **   ~~~   ** Air System Named = CENTRAL SYSTEM did not converge for mass flow rate
   **   ~~~   ** Check values should be zero. Most Recent values listed first.
   **   ~~~   ** Demand-to-Supply interface mass flow rate check value iteration history trace: 7.773295E-002,7.773295E-002,7.773295E-002,7.773295E-002,7.773295E-002,7.773295E-002,7.773295E-002,7.773295E-002,7.773295E-002,7.773295E-002,
   **   ~~~   ** Supply-to-demand interface deck 1 mass flow rate check value iteration history trace: 7.773295E-002,7.773295E-002,7.773295E-002,7.773295E-002,7.773295E-002,7.773295E-002,7.773295E-002,7.773295E-002,7.773295E-002,7.773295E-002,
   **   ~~~   ** Air System Named = CENTRAL SYSTEM did not converge for energy
   **   ~~~   ** Check values should be zero. Most Recent values listed first.
   **   ~~~   ** Demand-to-Supply interface energy check value iteration history trace: 1539.411914,1539.411913,1539.411913,1539.411913,1539.411913,1539.411913,1539.411913,1539.411913,1539.411913,1539.411913,
   **   ~~~   ** Supply-to-demand interface deck 1 energy check value iteration history trace: 2601.445691,2601.445691,2601.445691,2601.445691,2601.445691,2601.445691,2601.445690,2601.445690,2601.445690,2601.445690,
   ** Warning ** SimHVAC: Maximum iterations (20) exceeded for all HVAC loops, at ANNUAL, 03/07 20:20 - 20:25
   **   ~~~   ** The solution for one or more of the Air Loop HVAC systems did not appear to converge
   **   ~~~   ** Air System Named = CENTRAL SYSTEM did not converge for mass flow rate
   **   ~~~   ** Check values should be zero. Most Recent values listed first.
   **   ~~~   ** Demand-to-Supply interface mass flow rate check value iteration history trace: 9.580415E-002,9.580415E-002,9.580415E-002,9.580415E-002,9.580415E-002,9.580415E-002,9.580415E-002,9.580415E-002,9.580415E-002,9.580415E-002,
   **   ~~~   ** Supply-to-demand interface deck 1 mass flow rate check value iteration history trace: 9.580415E-002,9.580415E-002,9.580415E-002,9.580415E-002,9.580415E-002,9.580415E-002,9.580415E-002,9.580415E-002,9.580415E-002,9.580415E-002,
   **   ~~~   ** Air System Named = CENTRAL SYSTEM did not converge for energy
   **   ~~~   ** Check values should be zero. Most Recent values listed first.
   **   ~~~   ** Demand-to-Supply interface energy check value iteration history trace: 1897.936322,1897.936322,1897.936322,1897.936322,1897.936322,1897.936322,1897.936322,1897.936322,1897.936321,1897.936321,
   **   ~~~   ** Supply-to-demand interface deck 1 energy check value iteration history trace: 2964.378767,2964.378767,2964.378766,2964.378766,2964.378766,2964.378766,2964.378766,2964.378766,2964.378765,2964.378765,
   ** Warning ** SimHVAC: Maximum iterations (20) exceeded for all HVAC loops, at ANNUAL, 03/07 20:45 - 21:00
   **   ~~~   ** The solution for one or more of the Air Loop HVAC systems did not appear to converge
   **   ~~~   ** Air System Named = CENTRAL SYSTEM did not converge for mass flow rate
   **   ~~~   ** Check values should be zero. Most Recent values listed first.
   **   ~~~   ** Demand-to-Supply interface mass flow rate check value iteration history trace: 8.949592E-002,8.949592E-002,8.949592E-002,8.949592E-002,8.949592E-002,8.949592E-002,8.949592E-002,8.949592E-002,8.949592E-002,8.949592E-002,
   **   ~~~   ** Supply-to-demand interface deck 1 mass flow rate check value iteration history trace: 8.949592E-002,8.949592E-002,8.949592E-002,8.949592E-002,8.949592E-002,8.949592E-002,8.949592E-002,8.949592E-002,8.949592E-002,8.949592E-002,
   **   ~~~   ** Air System Named = CENTRAL SYSTEM did not converge for energy
   **   ~~~   ** Check values should be zero. Most Recent values listed first.
   **   ~~~   ** Demand-to-Supply interface energy check value iteration history trace: 1775.161901,1775.161901,1775.161901,1775.161900,1775.161900,1775.161900,1775.161900,1775.161900,1775.161900,1775.161900,
   **   ~~~   ** Supply-to-demand interface deck 1 energy check value iteration history trace: 2750.172178,2750.172178,2750.172177,2750.172177,2750.172177,2750.172177,2750.172177,2750.172176,2750.172176,2750.172176,
   ** Warning ** SimHVAC: Maximum iterations (20) exceeded for all HVAC loops, at ANNUAL, 03/12 12:45 - 12:52
   **   ~~~   ** The solution for one or more of the Air Loop HVAC systems did not appear to converge
   **   ~~~   ** Air System Named = CENTRAL SYSTEM did not converge for mass flow rate
   **   ~~~   ** Check values should be zero. Most Recent values listed first.
   **   ~~~   ** Demand-to-Supply interface mass flow rate check value iteration history trace: 5.677333E-002,5.677333E-002,5.677333E-002,5.677333E-002,5.677333E-002,5.677333E-002,5.677333E-002,5.677333E-002,5.677333E-002,5.677333E-002,
   **   ~~~   ** Supply-to-demand interface deck 1 mass flow rate check value iteration history trace: 5.677333E-002,5.677333E-002,5.677333E-002,5.677333E-002,5.677333E-002,5.677333E-002,5.677333E-002,5.677333E-002,5.677333E-002,5.677333E-002,
   **   ~~~   ** Air System Named = CENTRAL SYSTEM did not converge for energy
   **   ~~~   ** Check values should be zero. Most Recent values listed first.
   **   ~~~   ** Demand-to-Supply interface energy check value iteration history trace: 1110.790573,1110.790573,1110.790573,1110.790573,1110.790573,1110.790573,1110.790573,1110.790573,1110.790572,1110.790572,
   **   ~~~   ** Supply-to-demand interface deck 1 energy check value iteration history trace: 1974.106564,1974.106564,1974.106564,1974.106564,1974.106564,1974.106564,1974.106564,1974.106563,1974.106563,1974.106563,
   ** Warning ** SimHVAC: Maximum iterations (20) exceeded for all HVAC loops, at ANNUAL, 03/21 17:30 - 17:45
   **   ~~~   ** The solution for one or more of the Air Loop HVAC systems did not appear to converge
   **   ~~~   ** Air System Named = CENTRAL SYSTEM did not converge for mass flow rate
   **   ~~~   ** Check values should be zero. Most Recent values listed first.
   **   ~~~   ** Demand-to-Supply interface mass flow rate check value iteration history trace: 8.045502E-002,8.045502E-002,8.045502E-002,8.045502E-002,8.045502E-002,8.045502E-002,8.045502E-002,8.045502E-002,8.045502E-002,8.045502E-002,
   **   ~~~   ** Supply-to-demand interface deck 1 mass flow rate check value iteration history trace: 8.045502E-002,8.045502E-002,8.045502E-002,8.045502E-002,8.045502E-002,8.045502E-002,8.045502E-002,8.045502E-002,8.045502E-002,8.045502E-002,
   **   ~~~   ** Air System Named = CENTRAL SYSTEM did not converge for energy
   **   ~~~   ** Check values should be zero. Most Recent values listed first.
   **   ~~~   ** Demand-to-Supply interface energy check value iteration history trace: 1594.658557,1594.658557,1594.658557,1594.658557,1594.658557,1594.658557,1594.658557,1594.658557,1594.658557,1594.658557,
   **   ~~~   ** Supply-to-demand interface deck 1 energy check value iteration history trace: 2709.076940,2709.076940,2709.076939,2709.076939,2709.076939,2709.076939,2709.076939,2709.076939,2709.076939,2709.076939,
   ** Warning ** SimHVAC: Maximum iterations (20) exceeded for all HVAC loops, at ANNUAL, 03/26 19:45 - 20:00
   **   ~~~   ** The solution for one or more of the Air Loop HVAC systems did not appear to converge
   **   ~~~   ** Air System Named = CENTRAL SYSTEM did not converge for mass flow rate
   **   ~~~   ** Check values should be zero. Most Recent values listed first.
   **   ~~~   ** Demand-to-Supply interface mass flow rate check value iteration history trace: 0.104047,0.104047,0.104047,0.104047,0.104047,0.104047,0.104047,0.104047,0.104047,0.104047,
   **   ~~~   ** Supply-to-demand interface deck 1 mass flow rate check value iteration history trace: 0.104047,0.104047,0.104047,0.104047,0.104047,0.104047,0.104047,0.104047,0.104047,0.104047,
   **   ~~~   ** Air System Named = CENTRAL SYSTEM did not converge for energy
   **   ~~~   ** Check values should be zero. Most Recent values listed first.
   **   ~~~   ** Demand-to-Supply interface energy check value iteration history trace: 2056.617783,2056.617783,2056.617783,2056.617783,2056.617783,2056.617783,2056.617783,2056.617782,2056.617782,2056.617782,
   **   ~~~   ** Supply-to-demand interface deck 1 energy check value iteration history trace: 3178.129157,3178.129157,3178.129157,3178.129157,3178.129157,3178.129156,3178.129156,3178.129156,3178.129156,3178.129156,
   ** Warning ** Temperature out of range [-100. to 200.] (PsyPsatFnTemp)
   **   ~~~   **  Routine=PsyTwbFnTdbWPb, Environment=ANNUAL, at Simulation time=03/27 17:15 - 17:19
   **   ~~~   **  Input Temperature=-140.06
   ** Warning ** SimHVAC: Maximum iterations (20) exceeded for all HVAC loops, at ANNUAL, 04/01 19:45 - 20:00
   **   ~~~   ** The solution for one or more of the Air Loop HVAC systems did not appear to converge
   **   ~~~   ** Air System Named = CENTRAL SYSTEM did not converge for mass flow rate
   **   ~~~   ** Check values should be zero. Most Recent values listed first.
   **   ~~~   ** Demand-to-Supply interface mass flow rate check value iteration history trace: 3.413305E-002,3.413305E-002,3.413305E-002,3.413305E-002,3.413305E-002,3.413305E-002,3.413305E-002,3.413305E-002,3.413305E-002,3.413305E-002,
   **   ~~~   ** Supply-to-demand interface deck 1 mass flow rate check value iteration history trace: 3.413305E-002,3.413305E-002,3.413305E-002,3.413305E-002,3.413305E-002,3.413305E-002,3.413305E-002,3.413305E-002,3.413305E-002,3.413305E-002,
   **   ~~~   ** Air System Named = CENTRAL SYSTEM did not converge for energy
   **   ~~~   ** Check values should be zero. Most Recent values listed first.
   **   ~~~   ** Demand-to-Supply interface energy check value iteration history trace: 674.994137,674.994137,674.994137,674.994137,674.994137,674.994137,674.994137,674.994137,674.994137,674.994137,
   **   ~~~   ** Supply-to-demand interface deck 1 energy check value iteration history trace: 1217.807434,1217.807434,1217.807434,1217.807434,1217.807434,1217.807434,1217.807433,1217.807433,1217.807433,1217.807433,
   ** Warning ** SimHVAC: Maximum iterations (20) exceeded for all HVAC loops, at ANNUAL, 04/04 08:30 - 08:45
   **   ~~~   ** The solution for one or more of the Air Loop HVAC systems did not appear to converge
   **   ~~~   ** Air System Named = CENTRAL SYSTEM did not converge for mass flow rate
   **   ~~~   ** Check values should be zero. Most Recent values listed first.
   **   ~~~   ** Demand-to-Supply interface mass flow rate check value iteration history trace: 8.024736E-002,8.024736E-002,8.024736E-002,8.024736E-002,8.024736E-002,8.024736E-002,8.024736E-002,8.024736E-002,8.024736E-002,8.024736E-002,
   **   ~~~   ** Supply-to-demand interface deck 1 mass flow rate check value iteration history trace: 8.024736E-002,8.024736E-002,8.024736E-002,8.024736E-002,8.024736E-002,8.024736E-002,8.024736E-002,8.024736E-002,8.024736E-002,8.024736E-002,
   **   ~~~   ** Air System Named = CENTRAL SYSTEM did not converge for energy
   **   ~~~   ** Check values should be zero. Most Recent values listed first.
   **   ~~~   ** Demand-to-Supply interface energy check value iteration history trace: 1590.256461,1590.256460,1590.256460,1590.256460,1590.256460,1590.256460,1590.256460,1590.256460,1590.256460,1590.256460,
   **   ~~~   ** Supply-to-demand interface deck 1 energy check value iteration history trace: 2638.369829,2638.369828,2638.369828,2638.369828,2638.369828,2638.369828,2638.369828,2638.369828,2638.369827,2638.369827,
   ** Warning ** SimHVAC: Maximum iterations (20) exceeded for all HVAC loops, at ANNUAL, 04/15 08:03 - 08:06
   **   ~~~   ** The solution for one or more of the Air Loop HVAC systems did not appear to converge
   **   ~~~   ** Air System Named = CENTRAL SYSTEM did not converge for mass flow rate
   **   ~~~   ** Check values should be zero. Most Recent values listed first.
   **   ~~~   ** Demand-to-Supply interface mass flow rate check value iteration history trace: 7.641969E-002,7.641969E-002,7.641969E-002,7.641969E-002,7.641969E-002,7.641969E-002,7.641969E-002,7.641969E-002,7.641969E-002,7.641969E-002,
   **   ~~~   ** Supply-to-demand interface deck 1 mass flow rate check value iteration history trace: 7.641969E-002,7.641969E-002,7.641969E-002,7.641969E-002,7.641969E-002,7.641969E-002,7.641969E-002,7.641969E-002,7.641969E-002,7.641969E-002,
   **   ~~~   ** Air System Named = CENTRAL SYSTEM did not converge for energy
   **   ~~~   ** Check values should be zero. Most Recent values listed first.
   **   ~~~   ** Demand-to-Supply interface energy check value iteration history trace: 1515.012677,1515.012677,1515.012677,1515.012677,1515.012677,1515.012677,1515.012677,1515.012677,1515.012677,1515.012676,
   **   ~~~   ** Supply-to-demand interface deck 1 energy check value iteration history trace: 2536.354812,2536.354812,2536.354812,2536.354812,2536.354812,2536.354812,2536.354811,2536.354811,2536.354811,2536.354811,
   ** Warning ** SimHVAC: Maximum iterations (20) exceeded for all HVAC loops, at ANNUAL, 04/16 09:00 - 09:03
   **   ~~~   ** The solution for one or more of the Air Loop HVAC systems did not appear to converge
   **   ~~~   ** Air System Named = CENTRAL SYSTEM did not converge for mass flow rate
   **   ~~~   ** Check values should be zero. Most Recent values listed first.
   **   ~~~   ** Demand-to-Supply interface mass flow rate check value iteration history trace: 7.956572E-002,7.956572E-002,7.956572E-002,7.956572E-002,7.956572E-002,7.956572E-002,7.956572E-002,7.956572E-002,7.956572E-002,7.956572E-002,
   **   ~~~   ** Supply-to-demand interface deck 1 mass flow rate check value iteration history trace: 7.956572E-002,7.956572E-002,7.956572E-002,7.956572E-002,7.956572E-002,7.956572E-002,7.956572E-002,7.956572E-002,7.956572E-002,7.956572E-002,
   **   ~~~   ** Air System Named = CENTRAL SYSTEM did not converge for energy
   **   ~~~   ** Check values should be zero. Most Recent values listed first.
   **   ~~~   ** Demand-to-Supply interface energy check value iteration history trace: 1573.167385,1573.167385,1573.167385,1573.167385,1573.167385,1573.167385,1573.167385,1573.167384,1573.167384,1573.167384,
   **   ~~~   ** Supply-to-demand interface deck 1 energy check value iteration history trace: 2744.778571,2744.778571,2744.778571,2744.778571,2744.778571,2744.778570,2744.778570,2744.778570,2744.778570,2744.778570,
   ** Warning ** SimHVAC: Maximum iterations (20) exceeded for all HVAC loops, at ANNUAL, 10/24 19:00 - 19:15
   **   ~~~   ** The solution for one or more of the Air Loop HVAC systems did not appear to converge
   **   ~~~   ** Air System Named = CENTRAL SYSTEM did not converge for mass flow rate
   **   ~~~   ** Check values should be zero. Most Recent values listed first.
   **   ~~~   ** Demand-to-Supply interface mass flow rate check value iteration history trace: 2.363848E-002,2.363848E-002,2.363848E-002,2.363848E-002,2.363848E-002,2.363848E-002,2.363848E-002,2.363848E-002,2.363848E-002,2.363848E-002,
   **   ~~~   ** Supply-to-demand interface deck 1 mass flow rate check value iteration history trace: 2.363848E-002,2.363848E-002,2.363848E-002,2.363848E-002,2.363848E-002,2.363848E-002,2.363848E-002,2.363848E-002,2.363848E-002,2.363848E-002,
   **   ~~~   ** Air System Named = CENTRAL SYSTEM did not converge for energy
   **   ~~~   ** Check values should be zero. Most Recent values listed first.
   **   ~~~   ** Demand-to-Supply interface energy check value iteration history trace: 565.323671,565.323671,565.323671,565.323671,565.323671,565.323671,565.323671,565.323671,565.323671,565.323671,
   **   ~~~   ** Supply-to-demand interface deck 1 energy check value iteration history trace: 275.575651,275.575651,275.575651,275.575651,275.575651,275.575651,275.575651,275.575651,275.575651,275.575651,
   ** Warning ** SimHVAC: Maximum iterations (20) exceeded for all HVAC loops, at ANNUAL, 10/26 20:00 - 20:15
   **   ~~~   ** The solution for one or more of the Air Loop HVAC systems did not appear to converge
   **   ~~~   ** Air System Named = CENTRAL SYSTEM did not converge for mass flow rate
   **   ~~~   ** Check values should be zero. Most Recent values listed first.
   **   ~~~   ** Demand-to-Supply interface mass flow rate check value iteration history trace: 0.112157,0.112157,0.112157,0.112157,0.112157,0.112157,0.112157,0.112157,0.112157,0.112157,
   **   ~~~   ** Supply-to-demand interface deck 1 mass flow rate check value iteration history trace: 0.112157,0.112157,0.112157,0.112157,0.112157,0.112157,0.112157,0.112157,0.112157,0.112157,
   **   ~~~   ** Air System Named = CENTRAL SYSTEM did not converge for energy
   **   ~~~   ** Check values should be zero. Most Recent values listed first.
   **   ~~~   ** Demand-to-Supply interface energy check value iteration history trace: 2669.514637,2669.514638,2669.514638,2669.514638,2669.514639,2669.514639,2669.514639,2669.514640,2669.514640,2669.514641,
   **   ~~~   ** Supply-to-demand interface deck 1 energy check value iteration history trace: 1312.371721,1312.371722,1312.371722,1312.371722,1312.371722,1312.371722,1312.371722,1312.371723,1312.371723,1312.371723,
   ** Warning ** SimHVAC: Maximum iterations (20) exceeded for all HVAC loops, at ANNUAL, 10/28 08:30 - 08:45
   **   ~~~   ** The solution for one or more of the Air Loop HVAC systems did not appear to converge
   **   ~~~   ** Air System Named = CENTRAL SYSTEM did not converge for mass flow rate
   **   ~~~   ** Check values should be zero. Most Recent values listed first.
   **   ~~~   ** Demand-to-Supply interface mass flow rate check value iteration history trace: 9.230091E-002,9.230091E-002,9.230091E-002,9.230091E-002,9.230091E-002,9.230091E-002,9.230091E-002,9.230091E-002,9.230091E-002,9.230091E-002,
   **   ~~~   ** Supply-to-demand interface deck 1 mass flow rate check value iteration history trace: 9.230091E-002,9.230091E-002,9.230091E-002,9.230091E-002,9.230091E-002,9.230091E-002,9.230091E-002,9.230091E-002,9.230091E-002,9.230091E-002,
   **   ~~~   ** Air System Named = CENTRAL SYSTEM did not converge for energy
   **   ~~~   ** Check values should be zero. Most Recent values listed first.
   **   ~~~   ** Demand-to-Supply interface energy check value iteration history trace: 1828.976704,1828.976704,1828.976704,1828.976703,1828.976703,1828.976703,1828.976703,1828.976703,1828.976703,1828.976703,
   **   ~~~   ** Supply-to-demand interface deck 1 energy check value iteration history trace: 3025.308271,3025.308271,3025.308271,3025.308271,3025.308271,3025.308270,3025.308270,3025.308270,3025.308270,3025.308270,
   ************* Simulation Error Summary *************
   ** Warning ** The following Report Variables were requested but not generated -- check.rdd file
   **   ~~~   ** Either the IDF did not contain these elements, the variable name is misspelled,
   **   ~~~   ** or the requested variable is an advanced output which requires Output : Diagnostics, DisplayAdvancedReportVariables;
   ************* Key=*, VarName=BASEBOARD TOTAL HEATING ENERGY, Frequency=
   ************* Key=*, VarName=WATER HEATER NATURALGAS ENERGY, Frequency=
   ************* Key=*, VarName=COOLING COIL TOTAL HEATING ENERGY, Frequency=
   ************* There are 34 unused schedules in input.
   ************* There are 388 unused week schedules in input.
   ************* There are 396 unused day schedules in input.
   ************* Use Output:Diagnostics,DisplayUnusedSchedules; to see them.
   *************
   ************* ===== Recurring Error Summary =====
   ************* The following recurring error messages occurred.
   *************
   *************  ** Warning ** "TOTAL HOT WATER LOAD" - Target water temperature should be less than or equal to the hot water temperature error continues...
   *************  **   ~~~   **   This error occurred 87593 total times;
   *************  **   ~~~   **   during Warmup 0 times;
   *************  **   ~~~   **   during Sizing 0 times.
   *************  **   ~~~   **   Max=9.960255  Min=4.044314E-005
   *************
   *************  ** Warning ** Temperature out of range [-100. to 200.] (PsyPsatFnTemp)
   *************  **   ~~~   **   This error occurred 1 total times;
   *************  **   ~~~   **   during Warmup 0 times;
   *************  **   ~~~   **   during Sizing 0 times.
   *************  **   ~~~   **   Max=-140.060295 C  Min=-140.060295 C
   *************
   *************
   ************* ===== Final Error Summary =====
   ************* The following error categories occurred.  Consider correcting or noting.
   ************* Nominally Unused Constructions
   ************* ..The nominally unused constructions warning is provided to alert you to potential conditions that can cause
   ************* ..extra time during simulation. Each construction is calculated by the algorithm indicated in the HeatBalanceAlgorithm
   ************* ..object. You may remove the constructions indicated (when you use the DisplayExtraWarnings option).
   *************
   ************* EnergyPlus Warmup Error Summary. During Warmup: 1 Warning; 0 Severe Errors.
   ************* EnergyPlus Sizing Error Summary. During Sizing: 4 Warning; 0 Severe Errors.
   ************* EnergyPlus Completed Successfully-- 87625 Warning; 0 Severe Errors; Elapsed Time=00hr 04min 58.98sec
