Program Version,EnergyPlus, Version 22.2.0-c249759bad, YMD=2023.09.01 19:24,
   ************* Beginning Zone Sizing Calculations
   ** Warning ** ProcessScheduleInput: Schedule:Constant="ALWAYS ON DISCRETE", Schedule Type Limits Name="ONOFF" not found -- will not be validated
   ** Warning ** Foundation:Kiva="KIVA FOUNDATION", no Interior Horizontal Insulation Material Name defined
   **   ~~~   ** Interior Horizontal Insulation Depth will not be used.
   ** Warning ** CheckUsedConstructions: There are 15 nominally unused constructions in input.
   **   ~~~   ** Each Unused construction is shown.
   ************* Construction=INTERIOR FLOOR
   ************* Construction=INTERIOR WINDOW
   ************* Construction=EXTERIOR DOOR
   ************* Construction=INTERIOR DOOR
   ************* Construction=GABLE CONSTRUCTION
   ************* Construction=CRAWL_FLOOR
   ************* Construction=INSULATED PIPE
   ************* Construction=PLAIN PIPE
   ************* Construction=TDD PIPE
   ************* Construction=TDD DOME
   ************* Construction=TDD DIFFUSER
   ************* Construction=CRAWL WALL
   ************* Construction=CEILING-FLOOR-LAYER
   ************* Construction=SLAB CONSTRUCTION W FULL R10 INSULATION
   ************* Construction=SLAB CONSTRUCTION W FULL R5 INSULATION
   ** Warning ** GetDXCoils: Coil:Heating:DX:SingleSpeed="DX_HEATING_COIL" curve values
   **   ~~~   ** ... Defrost Energy Input Ratio Function of Temperature Curve Name = DEFROSTEIR output is not equal to 1.0 (+ or - 10%) at rated conditions.
   **   ~~~   ** ... Curve output at rated conditions = 0.152
   ************* Beginning System Sizing Calculations
   ************* Beginning Plant Sizing Calculations
   ** Warning ** SizeDXCoil Coil:Cooling:DX:SingleSpeed DX_COOLING_COIL
   **   ~~~   ** ...Gross Rated Total Cooling Capacity [W] will be limited by the maximum rated volume flow per rated total capacity ratio.
   **   ~~~   ** ...DX coil volume flow rate ( m3/s ) = 0.305748
   **   ~~~   ** ...Requested capacity ( W ) = 4666.743
   **   ~~~   ** ...Requested flow/capacity ratio ( m3/s/W ) = 6.551E-005
   **   ~~~   ** ...Maximum flow/capacity ratio ( m3/s/W ) = 6.041E-005
   **   ~~~   ** ...Adjusted capacity ( W ) = 5061.230
   ** Warning ** Coil:WaterHeating:AirToWaterHeatPump:Wrapped "HEAT PUMP WATER HEATER EVAPORATOR": Rated air volume flow rate per watt of rated total water heating capacity is out of range
   **   ~~~   ** Min Rated Vol Flow Per Watt=[4.027E-005], Rated Vol Flow Per Watt=[1.510E-004], Max Rated Vol Flow Per Watt=[8.056E-005]. See Input-Output Reference Manual for valid range.
   ************* SizeFan: : Potential issue with equipment sizing for Fan:OnOff HEAT PUMP WATER HEATER FAN
   **   ~~~   ** User-Specified Maximum Flow Rate [m3/s] = 0.22653
   **   ~~~   ** differs from Design Size Maximum Flow Rate [m3/s] = 7.55250E-002
   **   ~~~   ** This may, or may not, indicate mismatched component sizes.
   **   ~~~   ** Verify that the value entered is intended and is consistent with other components.
   ** Warning ** Water heater = WATER HEATER TANK:  Recovery Efficiency and Energy Factor could not be calculated during the test for standard ratings
   **   ~~~   ** Setpoint was never recovered and/or heater never turned on
   ** Warning ** Check input. Pump nominal power or motor efficiency is set to 0, for pump=MAINS PRESSURE
   ** Warning ** Output:Meter: invalid Key Name="ELECTRIC_RANGE:INTERIOREQUIPMENT:ELECTRICITY" - not found.
   ** Warning ** Output:Meter: invalid Key Name="ELECTRIC_DRYER:INTERIOREQUIPMENT:ELECTRICITY" - not found.
   ** Warning ** Output:Meter: invalid Key Name="HEATRECOVERY:ELECTRICITY" - not found.
   ** Warning ** Output:Meter: invalid Key Name="HEATING:NATURALGAS" - not found.
   ** Warning ** Output:Meter: invalid Key Name="WATERSYSTEMS:NATURALGAS" - not found.
   ** Warning ** Output:Meter: invalid Key Name="PROPANE:FACILITY" - not found.
   ** Warning ** Output:Meter: invalid Key Name="HEATING:PROPANE" - not found.
   ************* Testing Individual Branch Integrity
   ************* All Branches passed integrity testing
   ************* Testing Individual Supply Air Path Integrity
   ************* All Supply Air Paths passed integrity testing
   ************* Testing Individual Return Air Path Integrity
   ************* All Return Air Paths passed integrity testing
   ************* No node connection errors were found.
   ************* Beginning Simulation
   ** Warning ** AirflowNetwork::Solver::validate_distribution: Heat pump water heater is simulated along with an AirflowNetwork but is not included in the AirflowNetwork.
   ** Warning ** CalcEquipmentFlowRates: "TOTAL HOT WATER LOAD" - Target water temperature is greater than the hot water temperature by (0.73 C)
   **   ~~~   **  Environment=EXTREME_WINTER, at Simulation time=02/15 06:00 - 06:15
   **   ~~~   ** ...target water temperature     = 53.33 C
   **   ~~~   ** ...hot water temperature        = 52.60 C
   **   ~~~   ** ...Target water temperature should be less than or equal to the hot water temperature. Verify temperature setpoints and schedules.
   ** Warning ** SimHVAC: Maximum iterations (20) exceeded for all HVAC loops, at EXTREME_WINTER, 02/16 04:00 - 04:15
   **   ~~~   ** The solution for one or more of the Air Loop HVAC systems did not appear to converge
   **   ~~~   ** Air System Named = CENTRAL SYSTEM did not converge for mass flow rate
   **   ~~~   ** Check values should be zero. Most Recent values listed first.
   **   ~~~   ** Demand-to-Supply interface mass flow rate check value iteration history trace: 6.287831E-002,6.287831E-002,6.287831E-002,6.287831E-002,6.287831E-002,6.287831E-002,6.287831E-002,6.287831E-002,6.287831E-002,6.287831E-002,
   **   ~~~   ** Supply-to-demand interface deck 1 mass flow rate check value iteration history trace: 6.287831E-002,6.287831E-002,6.287831E-002,6.287831E-002,6.287831E-002,6.287831E-002,6.287831E-002,6.287831E-002,6.287831E-002,6.287831E-002,
   **   ~~~   ** Air System Named = CENTRAL SYSTEM did not converge for energy
   **   ~~~   ** Check values should be zero. Most Recent values listed first.
   **   ~~~   ** Demand-to-Supply interface energy check value iteration history trace: 1184.020780,1184.020780,1184.020779,1184.020779,1184.020779,1184.020779,1184.020779,1184.020779,1184.020779,1184.020779,
   **   ~~~   ** Supply-to-demand interface deck 1 energy check value iteration history trace: 2022.396825,2022.396825,2022.396825,2022.396825,2022.396825,2022.396825,2022.396825,2022.396825,2022.396824,2022.396824,
   ** Warning ** SimHVAC: Maximum iterations (20) exceeded for all HVAC loops, at ANNUAL, 01/03 06:45 - 07:00
   **   ~~~   ** The solution for one or more of the Air Loop HVAC systems did not appear to converge
   **   ~~~   ** Air System Named = CENTRAL SYSTEM did not converge for mass flow rate
   **   ~~~   ** Check values should be zero. Most Recent values listed first.
   **   ~~~   ** Demand-to-Supply interface mass flow rate check value iteration history trace: 5.245152E-002,5.245152E-002,5.245152E-002,5.245152E-002,5.245152E-002,5.245152E-002,5.245152E-002,5.245152E-002,5.245152E-002,5.245152E-002,
   **   ~~~   ** Supply-to-demand interface deck 1 mass flow rate check value iteration history trace: 5.245152E-002,5.245152E-002,5.245152E-002,5.245152E-002,5.245152E-002,5.245152E-002,5.245152E-002,5.245152E-002,5.245152E-002,5.245152E-002,
   **   ~~~   ** Air System Named = CENTRAL SYSTEM did not converge for energy
   **   ~~~   ** Check values should be zero. Most Recent values listed first.
   **   ~~~   ** Demand-to-Supply interface energy check value iteration history trace: 1040.001879,1040.001879,1040.001879,1040.001879,1040.001879,1040.001879,1040.001879,1040.001879,1040.001879,1040.001879,
   **   ~~~   ** Supply-to-demand interface deck 1 energy check value iteration history trace: 1812.738402,1812.738402,1812.738402,1812.738402,1812.738402,1812.738402,1812.738402,1812.738401,1812.738401,1812.738401,
   ** Warning ** SimHVAC: Maximum iterations (20) exceeded for all HVAC loops, at ANNUAL, 01/09 06:23 - 06:30
   **   ~~~   ** The solution for one or more of the Air Loop HVAC systems did not appear to converge
   **   ~~~   ** Air System Named = CENTRAL SYSTEM did not converge for mass flow rate
   **   ~~~   ** Check values should be zero. Most Recent values listed first.
   **   ~~~   ** Demand-to-Supply interface mass flow rate check value iteration history trace: 5.179573E-002,5.179573E-002,5.179573E-002,5.179573E-002,5.179573E-002,5.179573E-002,5.179573E-002,5.179573E-002,5.179573E-002,5.179573E-002,
   **   ~~~   ** Supply-to-demand interface deck 1 mass flow rate check value iteration history trace: 5.179573E-002,5.179573E-002,5.179573E-002,5.179573E-002,5.179573E-002,5.179573E-002,5.179573E-002,5.179573E-002,5.179573E-002,5.179573E-002,
   **   ~~~   ** Air System Named = CENTRAL SYSTEM did not converge for energy
   **   ~~~   ** Check values should be zero. Most Recent values listed first.
   **   ~~~   ** Demand-to-Supply interface energy check value iteration history trace: 1017.312160,1017.312160,1017.312160,1017.312160,1017.312160,1017.312160,1017.312160,1017.312160,1017.312160,1017.312160,
   **   ~~~   ** Supply-to-demand interface deck 1 energy check value iteration history trace: 1764.851858,1764.851858,1764.851858,1764.851858,1764.851857,1764.851857,1764.851857,1764.851857,1764.851857,1764.851857,
   ** Warning ** SimHVAC: Maximum iterations (20) exceeded for all HVAC loops, at ANNUAL, 01/19 07:30 - 07:45
   **   ~~~   ** The solution for one or more of the Air Loop HVAC systems did not appear to converge
   **   ~~~   ** Air System Named = CENTRAL SYSTEM did not converge for mass flow rate
   **   ~~~   ** Check values should be zero. Most Recent values listed first.
   **   ~~~   ** Demand-to-Supply interface mass flow rate check value iteration history trace: 5.952409E-002,5.952409E-002,5.952409E-002,5.952409E-002,5.952409E-002,5.952409E-002,5.952409E-002,5.952409E-002,5.952409E-002,5.952409E-002,
   **   ~~~   ** Supply-to-demand interface deck 1 mass flow rate check value iteration history trace: 5.952409E-002,5.952409E-002,5.952409E-002,5.952409E-002,5.952409E-002,5.952409E-002,5.952409E-002,5.952409E-002,5.952409E-002,5.952409E-002,
   **   ~~~   ** Air System Named = CENTRAL SYSTEM did not converge for energy
   **   ~~~   ** Check values should be zero. Most Recent values listed first.
   **   ~~~   ** Demand-to-Supply interface energy check value iteration history trace: 1159.129195,1159.129194,1159.129194,1159.129194,1159.129194,1159.129194,1159.129194,1159.129194,1159.129194,1159.129194,
   **   ~~~   ** Supply-to-demand interface deck 1 energy check value iteration history trace: 2080.767709,2080.767709,2080.767708,2080.767708,2080.767708,2080.767708,2080.767708,2080.767708,2080.767708,2080.767708,
   ** Warning ** SimHVAC: Maximum iterations (20) exceeded for all HVAC loops, at ANNUAL, 02/16 04:15 - 04:30
   **   ~~~   ** The solution for one or more of the Air Loop HVAC systems did not appear to converge
   **   ~~~   ** Air System Named = CENTRAL SYSTEM did not converge for mass flow rate
   **   ~~~   ** Check values should be zero. Most Recent values listed first.
   **   ~~~   ** Demand-to-Supply interface mass flow rate check value iteration history trace: 6.258471E-002,6.258471E-002,6.258471E-002,6.258471E-002,6.258471E-002,6.258471E-002,6.258471E-002,6.258471E-002,6.258471E-002,6.258471E-002,
   **   ~~~   ** Supply-to-demand interface deck 1 mass flow rate check value iteration history trace: 6.258471E-002,6.258471E-002,6.258471E-002,6.258471E-002,6.258471E-002,6.258471E-002,6.258471E-002,6.258471E-002,6.258471E-002,6.258471E-002,
   **   ~~~   ** Air System Named = CENTRAL SYSTEM did not converge for energy
   **   ~~~   ** Check values should be zero. Most Recent values listed first.
   **   ~~~   ** Demand-to-Supply interface energy check value iteration history trace: 1176.361374,1176.361374,1176.361374,1176.361374,1176.361374,1176.361374,1176.361374,1176.361374,1176.361374,1176.361374,
   **   ~~~   ** Supply-to-demand interface deck 1 energy check value iteration history trace: 2010.953396,2010.953395,2010.953395,2010.953395,2010.953395,2010.953395,2010.953395,2010.953395,2010.953395,2010.953395,
   ** Warning ** SimHVAC: Maximum iterations (20) exceeded for all HVAC loops, at ANNUAL, 02/28 07:30 - 07:34
   **   ~~~   ** The solution for one or more of the Air Loop HVAC systems did not appear to converge
   **   ~~~   ** Air System Named = CENTRAL SYSTEM did not converge for mass flow rate
   **   ~~~   ** Check values should be zero. Most Recent values listed first.
   **   ~~~   ** Demand-to-Supply interface mass flow rate check value iteration history trace: 7.007167E-002,7.007167E-002,7.007167E-002,7.007167E-002,7.007167E-002,7.007167E-002,7.007167E-002,7.007167E-002,7.007167E-002,7.007167E-002,
   **   ~~~   ** Supply-to-demand interface deck 1 mass flow rate check value iteration history trace: 7.007167E-002,7.007167E-002,7.007167E-002,7.007167E-002,7.007167E-002,7.007167E-002,7.007167E-002,7.007167E-002,7.007167E-002,7.007167E-002,
   **   ~~~   ** Air System Named = CENTRAL SYSTEM did not converge for energy
   **   ~~~   ** Check values should be zero. Most Recent values listed first.
   **   ~~~   ** Demand-to-Supply interface energy check value iteration history trace: 1388.461855,1388.461855,1388.461855,1388.461855,1388.461855,1388.461855,1388.461855,1388.461855,1388.461855,1388.461855,
   **   ~~~   ** Supply-to-demand interface deck 1 energy check value iteration history trace: 2372.754181,2372.754181,2372.754181,2372.754180,2372.754180,2372.754180,2372.754180,2372.754180,2372.754180,2372.754180,
   ** Warning ** SimHVAC: Maximum iterations (20) exceeded for all HVAC loops, at ANNUAL, 04/02 10:30 - 10:45
   **   ~~~   ** The solution for one or more of the Air Loop HVAC systems did not appear to converge
   **   ~~~   ** Air System Named = CENTRAL SYSTEM did not converge for mass flow rate
   **   ~~~   ** Check values should be zero. Most Recent values listed first.
   **   ~~~   ** Demand-to-Supply interface mass flow rate check value iteration history trace: 6.624834E-002,6.624834E-002,6.624834E-002,6.624834E-002,6.624834E-002,6.624834E-002,6.624834E-002,6.624834E-002,6.624834E-002,6.624834E-002,
   **   ~~~   ** Supply-to-demand interface deck 1 mass flow rate check value iteration history trace: 6.624834E-002,6.624834E-002,6.624834E-002,6.624834E-002,6.624834E-002,6.624834E-002,6.624834E-002,6.624834E-002,6.624834E-002,6.624834E-002,
   **   ~~~   ** Air System Named = CENTRAL SYSTEM did not converge for energy
   **   ~~~   ** Check values should be zero. Most Recent values listed first.
   **   ~~~   ** Demand-to-Supply interface energy check value iteration history trace: 1573.987260,1573.987260,1573.987260,1573.987260,1573.987260,1573.987260,1573.987261,1573.987261,1573.987261,1573.987261,
   **   ~~~   ** Supply-to-demand interface deck 1 energy check value iteration history trace: 840.991617,840.991617,840.991617,840.991617,840.991617,840.991617,840.991617,840.991617,840.991617,840.991617,
   ** Warning ** SimHVAC: Maximum iterations (20) exceeded for all HVAC loops, at ANNUAL, 04/04 07:19 - 07:21
   **   ~~~   ** The solution for one or more of the Air Loop HVAC systems did not appear to converge
   **   ~~~   ** Air System Named = CENTRAL SYSTEM did not converge for mass flow rate
   **   ~~~   ** Check values should be zero. Most Recent values listed first.
   **   ~~~   ** Demand-to-Supply interface mass flow rate check value iteration history trace: 0.141073,0.141073,0.141073,0.141073,0.141073,0.141073,0.141073,0.141073,0.141073,0.141073,
   **   ~~~   ** Supply-to-demand interface deck 1 mass flow rate check value iteration history trace: 0.141073,0.141073,0.141073,0.141073,0.141073,0.141073,0.141073,0.141073,0.141073,0.141073,
   **   ~~~   ** Air System Named = CENTRAL SYSTEM did not converge for energy
   **   ~~~   ** Check values should be zero. Most Recent values listed first.
   **   ~~~   ** Demand-to-Supply interface energy check value iteration history trace: 3332.225746,3332.225746,3332.225746,3332.225746,3332.225746,3332.225747,3332.225747,3332.225747,3332.225747,3332.225747,
   **   ~~~   ** Supply-to-demand interface deck 1 energy check value iteration history trace: 1802.790729,1802.790729,1802.790729,1802.790729,1802.790729,1802.790730,1802.790730,1802.790730,1802.790730,1802.790730,
   ** Warning ** SimHVAC: Maximum iterations (20) exceeded for all HVAC loops, at ANNUAL, 04/04 08:21 - 08:24
   **   ~~~   ** The solution for one or more of the Air Loop HVAC systems did not appear to converge
   **   ~~~   ** Air System Named = CENTRAL SYSTEM did not converge for mass flow rate
   **   ~~~   ** Check values should be zero. Most Recent values listed first.
   **   ~~~   ** Demand-to-Supply interface mass flow rate check value iteration history trace: 7.832271E-002,7.832271E-002,7.832271E-002,7.832271E-002,7.832271E-002,7.832271E-002,7.832271E-002,7.832271E-002,7.832271E-002,7.832271E-002,
   **   ~~~   ** Supply-to-demand interface deck 1 mass flow rate check value iteration history trace: 7.832271E-002,7.832271E-002,7.832271E-002,7.832271E-002,7.832271E-002,7.832271E-002,7.832271E-002,7.832271E-002,7.832271E-002,7.832271E-002,
   **   ~~~   ** Air System Named = CENTRAL SYSTEM did not converge for energy
   **   ~~~   ** Check values should be zero. Most Recent values listed first.
   **   ~~~   ** Demand-to-Supply interface energy check value iteration history trace: 1841.539801,1841.539801,1841.539801,1841.539801,1841.539801,1841.539801,1841.539801,1841.539801,1841.539802,1841.539802,
   **   ~~~   ** Supply-to-demand interface deck 1 energy check value iteration history trace: 963.641437,963.641437,963.641437,963.641437,963.641437,963.641437,963.641437,963.641437,963.641437,963.641437,
   ** Warning ** SimHVAC: Maximum iterations (20) exceeded for all HVAC loops, at ANNUAL, 12/10 11:30 - 11:45
   **   ~~~   ** The solution for one or more of the Air Loop HVAC systems did not appear to converge
   **   ~~~   ** Air System Named = CENTRAL SYSTEM did not converge for mass flow rate
   **   ~~~   ** Check values should be zero. Most Recent values listed first.
   **   ~~~   ** Demand-to-Supply interface mass flow rate check value iteration history trace: 2.664558E-002,2.664558E-002,2.664558E-002,2.664558E-002,2.664558E-002,2.664558E-002,2.664558E-002,2.664558E-002,2.664558E-002,2.664558E-002,
   **   ~~~   ** Supply-to-demand interface deck 1 mass flow rate check value iteration history trace: 2.664558E-002,2.664558E-002,2.664558E-002,2.664558E-002,2.664558E-002,2.664558E-002,2.664558E-002,2.664558E-002,2.664558E-002,2.664558E-002,
   **   ~~~   ** Air System Named = CENTRAL SYSTEM did not converge for energy
   **   ~~~   ** Check values should be zero. Most Recent values listed first.
   **   ~~~   ** Demand-to-Supply interface energy check value iteration history trace: 622.329510,622.329511,622.329511,622.329511,622.329511,622.329511,622.329511,622.329511,622.329511,622.329511,
   **   ~~~   ** Supply-to-demand interface deck 1 energy check value iteration history trace: 312.391036,312.391036,312.391037,312.391037,312.391037,312.391037,312.391037,312.391037,312.391037,312.391037,
   ************* Simulation Error Summary *************
   ** Warning ** The following Report Variables were requested but not generated -- check.rdd file
   **   ~~~   ** Either the IDF did not contain these elements, the variable name is misspelled,
   **   ~~~   ** or the requested variable is an advanced output which requires Output : Diagnostics, DisplayAdvancedReportVariables;
   ************* Key=*, VarName=BASEBOARD TOTAL HEATING ENERGY, Frequency=
   ************* Key=*, VarName=WATER HEATER NATURALGAS ENERGY, Frequency=
   ************* Key=*, VarName=COOLING COIL TOTAL HEATING ENERGY, Frequency=
   ************* There are 34 unused schedules in input.
   ************* There are 388 unused week schedules in input.
   ************* There are 396 unused day schedules in input.
   ************* Use Output:Diagnostics,DisplayUnusedSchedules; to see them.
   *************
   ************* ===== Recurring Error Summary =====
   ************* The following recurring error messages occurred.
   *************
   *************  ** Warning ** "TOTAL HOT WATER LOAD" - Target water temperature should be less than or equal to the hot water temperature error continues...
   *************  **   ~~~   **   This error occurred 135139 total times;
   *************  **   ~~~   **   during Warmup 0 times;
   *************  **   ~~~   **   during Sizing 0 times.
   *************  **   ~~~   **   Max=8.479273  Min=3.884844E-004
   *************
   *************
   ************* ===== Final Error Summary =====
   ************* The following error categories occurred.  Consider correcting or noting.
   ************* Nominally Unused Constructions
   ************* ..The nominally unused constructions warning is provided to alert you to potential conditions that can cause
   ************* ..extra time during simulation. Each construction is calculated by the algorithm indicated in the HeatBalanceAlgorithm
   ************* ..object. You may remove the constructions indicated (when you use the DisplayExtraWarnings option).
   *************
   ************* EnergyPlus Warmup Error Summary. During Warmup: 1 Warning; 0 Severe Errors.
   ************* EnergyPlus Sizing Error Summary. During Sizing: 4 Warning; 0 Severe Errors.
   ************* EnergyPlus Completed Successfully-- 135167 Warning; 0 Severe Errors; Elapsed Time=00hr 01min 39.55sec
