Program Version,EnergyPlus, Version 22.2.0-c249759bad, YMD=2023.09.01 15:14,
   ************* Beginning Zone Sizing Calculations
   ** Warning ** ProcessScheduleInput: Schedule:Constant="ALWAYS ON DISCRETE", Schedule Type Limits Name="ONOFF" not found -- will not be validated
   ** Warning ** Foundation:Kiva="KIVA FOUNDATION", no Interior Horizontal Insulation Material Name defined
   **   ~~~   ** Interior Horizontal Insulation Depth will not be used.
   ** Warning ** CheckUsedConstructions: There are 15 nominally unused constructions in input.
   **   ~~~   ** Each Unused construction is shown.
   ************* Construction=INTERIOR FLOOR
   ************* Construction=INTERIOR WINDOW
   ************* Construction=EXTERIOR DOOR
   ************* Construction=INTERIOR DOOR
   ************* Construction=GABLE CONSTRUCTION
   ************* Construction=CRAWL_FLOOR
   ************* Construction=INSULATED PIPE
   ************* Construction=PLAIN PIPE
   ************* Construction=TDD PIPE
   ************* Construction=TDD DOME
   ************* Construction=TDD DIFFUSER
   ************* Construction=CRAWL WALL
   ************* Construction=CEILING-FLOOR-LAYER
   ************* Construction=SLAB CONSTRUCTION W FULL R10 INSULATION
   ************* Construction=SLAB CONSTRUCTION W FULL R5 INSULATION
   ** Warning ** GetDXCoils: Coil:Heating:DX:SingleSpeed="DX_HEATING_COIL" curve values
   **   ~~~   ** ... Defrost Energy Input Ratio Function of Temperature Curve Name = DEFROSTEIR output is not equal to 1.0 (+ or - 10%) at rated conditions.
   **   ~~~   ** ... Curve output at rated conditions = 0.152
   ************* Beginning System Sizing Calculations
   ************* Beginning Plant Sizing Calculations
   ** Warning ** SizeDXCoil Coil:Cooling:DX:SingleSpeed DX_COOLING_COIL
   **   ~~~   ** ...Gross Rated Total Cooling Capacity [W] will be limited by the maximum rated volume flow per rated total capacity ratio.
   **   ~~~   ** ...DX coil volume flow rate ( m3/s ) = 0.486358
   **   ~~~   ** ...Requested capacity ( W ) = 6603.026
   **   ~~~   ** ...Requested flow/capacity ratio ( m3/s/W ) = 7.365E-005
   **   ~~~   ** ...Maximum flow/capacity ratio ( m3/s/W ) = 6.041E-005
   **   ~~~   ** ...Adjusted capacity ( W ) = 8050.968
   ** Warning ** Coil:WaterHeating:AirToWaterHeatPump:Wrapped "HEAT PUMP WATER HEATER EVAPORATOR": Rated air volume flow rate per watt of rated total water heating capacity is out of range
   **   ~~~   ** Min Rated Vol Flow Per Watt=[4.027E-005], Rated Vol Flow Per Watt=[1.386E-004], Max Rated Vol Flow Per Watt=[8.056E-005]. See Input-Output Reference Manual for valid range.
   ** Warning ** Water heater = WATER HEATER TANK:  Recovery Efficiency and Energy Factor could not be calculated during the test for standard ratings
   **   ~~~   ** Setpoint was never recovered and/or heater never turned on
   ** Warning ** Check input. Pump nominal power or motor efficiency is set to 0, for pump=MAINS PRESSURE
   ** Warning ** Output:Meter: invalid Key Name="ELECTRIC_RANGE:INTERIOREQUIPMENT:ELECTRICITY" - not found.
   ** Warning ** Output:Meter: invalid Key Name="ELECTRIC_DRYER:INTERIOREQUIPMENT:ELECTRICITY" - not found.
   ** Warning ** Output:Meter: invalid Key Name="HEATRECOVERY:ELECTRICITY" - not found.
   ** Warning ** Output:Meter: invalid Key Name="HEATING:NATURALGAS" - not found.
   ** Warning ** Output:Meter: invalid Key Name="WATERSYSTEMS:NATURALGAS" - not found.
   ** Warning ** Output:Meter: invalid Key Name="PROPANE:FACILITY" - not found.
   ** Warning ** Output:Meter: invalid Key Name="HEATING:PROPANE" - not found.
   ************* Testing Individual Branch Integrity
   ************* All Branches passed integrity testing
   ************* Testing Individual Supply Air Path Integrity
   ************* All Supply Air Paths passed integrity testing
   ************* Testing Individual Return Air Path Integrity
   ************* All Return Air Paths passed integrity testing
   ************* No node connection errors were found.
   ************* Beginning Simulation
   ** Warning ** AirflowNetwork::Solver::validate_distribution: Heat pump water heater is simulated along with an AirflowNetwork but is not included in the AirflowNetwork.
   ** Warning ** CalcEquipmentFlowRates: "TOTAL HOT WATER LOAD" - Target water temperature is greater than the hot water temperature by (1.66 C)
   **   ~~~   **  Environment=EXTREME_WINTER, at Simulation time=12/22 06:00 - 06:15
   **   ~~~   ** ...target water temperature     = 53.33 C
   **   ~~~   ** ...hot water temperature        = 51.67 C
   **   ~~~   ** ...Target water temperature should be less than or equal to the hot water temperature. Verify temperature setpoints and schedules.
   ** Warning ** SimHVAC: Maximum iterations (20) exceeded for all HVAC loops, at ANNUAL, 01/08 18:45 - 18:50
   **   ~~~   ** The solution for one or more of the Air Loop HVAC systems did not appear to converge
   **   ~~~   ** Air System Named = CENTRAL SYSTEM did not converge for mass flow rate
   **   ~~~   ** Check values should be zero. Most Recent values listed first.
   **   ~~~   ** Demand-to-Supply interface mass flow rate check value iteration history trace: 0.115820,0.115820,0.115820,0.115820,0.115820,0.115820,0.115820,0.115820,0.115820,0.115820,
   **   ~~~   ** Supply-to-demand interface deck 1 mass flow rate check value iteration history trace: 0.115820,0.115820,0.115820,0.115820,0.115820,0.115820,0.115820,0.115820,0.115820,0.115820,
   **   ~~~   ** Air System Named = CENTRAL SYSTEM did not converge for energy
   **   ~~~   ** Check values should be zero. Most Recent values listed first.
   **   ~~~   ** Demand-to-Supply interface energy check value iteration history trace: 2292.315017,2292.315016,2292.315016,2292.315016,2292.315016,2292.315016,2292.315016,2292.315015,2292.315015,2292.315015,
   **   ~~~   ** Supply-to-demand interface deck 1 energy check value iteration history trace: 3521.332398,3521.332397,3521.332397,3521.332397,3521.332397,3521.332396,3521.332396,3521.332396,3521.332396,3521.332395,
   ** Warning ** SimHVAC: Maximum iterations (20) exceeded for all HVAC loops, at ANNUAL, 01/10 19:15 - 19:30
   **   ~~~   ** The solution for one or more of the Air Loop HVAC systems did not appear to converge
   **   ~~~   ** Air System Named = CENTRAL SYSTEM did not converge for mass flow rate
   **   ~~~   ** Check values should be zero. Most Recent values listed first.
   **   ~~~   ** Demand-to-Supply interface mass flow rate check value iteration history trace: 0.116320,0.116320,0.116320,0.116320,0.116320,0.116320,0.116320,0.116320,0.116320,0.116320,
   **   ~~~   ** Supply-to-demand interface deck 1 mass flow rate check value iteration history trace: 0.116320,0.116320,0.116320,0.116320,0.116320,0.116320,0.116320,0.116320,0.116320,0.116320,
   **   ~~~   ** Air System Named = CENTRAL SYSTEM did not converge for energy
   **   ~~~   ** Check values should be zero. Most Recent values listed first.
   **   ~~~   ** Demand-to-Supply interface energy check value iteration history trace: 2298.833159,2298.833159,2298.833159,2298.833159,2298.833158,2298.833158,2298.833158,2298.833158,2298.833158,2298.833158,
   **   ~~~   ** Supply-to-demand interface deck 1 energy check value iteration history trace: 3544.882807,3544.882807,3544.882806,3544.882806,3544.882806,3544.882806,3544.882805,3544.882805,3544.882805,3544.882805,
   ** Warning ** SimHVAC: Maximum iterations (20) exceeded for all HVAC loops, at ANNUAL, 01/18 19:45 - 20:00
   **   ~~~   ** The solution for one or more of the Air Loop HVAC systems did not appear to converge
   **   ~~~   ** Air System Named = CENTRAL SYSTEM did not converge for mass flow rate
   **   ~~~   ** Check values should be zero. Most Recent values listed first.
   **   ~~~   ** Demand-to-Supply interface mass flow rate check value iteration history trace: 8.342561E-002,8.342561E-002,8.342561E-002,8.342561E-002,8.342561E-002,8.342561E-002,8.342561E-002,8.342561E-002,8.342561E-002,8.342561E-002,
   **   ~~~   ** Supply-to-demand interface deck 1 mass flow rate check value iteration history trace: 8.342561E-002,8.342561E-002,8.342561E-002,8.342561E-002,8.342561E-002,8.342561E-002,8.342561E-002,8.342561E-002,8.342561E-002,8.342561E-002,
   **   ~~~   ** Air System Named = CENTRAL SYSTEM did not converge for energy
   **   ~~~   ** Check values should be zero. Most Recent values listed first.
   **   ~~~   ** Demand-to-Supply interface energy check value iteration history trace: 1651.207944,1651.207943,1651.207943,1651.207943,1651.207943,1651.207943,1651.207943,1651.207943,1651.207943,1651.207943,
   **   ~~~   ** Supply-to-demand interface deck 1 energy check value iteration history trace: 2904.261924,2904.261924,2904.261924,2904.261924,2904.261924,2904.261924,2904.261924,2904.261924,2904.261923,2904.261923,
   ** Warning ** SimHVAC: Maximum iterations (20) exceeded for all HVAC loops, at ANNUAL, 01/23 13:30 - 13:45
   **   ~~~   ** The solution for one or more of the Air Loop HVAC systems did not appear to converge
   **   ~~~   ** Air System Named = CENTRAL SYSTEM did not converge for mass flow rate
   **   ~~~   ** Check values should be zero. Most Recent values listed first.
   **   ~~~   ** Demand-to-Supply interface mass flow rate check value iteration history trace: 7.569570E-002,7.569570E-002,7.569570E-002,7.569570E-002,7.569570E-002,7.569570E-002,7.569570E-002,7.569570E-002,7.569570E-002,7.569570E-002,
   **   ~~~   ** Supply-to-demand interface deck 1 mass flow rate check value iteration history trace: 7.569570E-002,7.569570E-002,7.569570E-002,7.569570E-002,7.569570E-002,7.569570E-002,7.569570E-002,7.569570E-002,7.569570E-002,7.569570E-002,
   **   ~~~   ** Air System Named = CENTRAL SYSTEM did not converge for energy
   **   ~~~   ** Check values should be zero. Most Recent values listed first.
   **   ~~~   ** Demand-to-Supply interface energy check value iteration history trace: 1499.983385,1499.983385,1499.983385,1499.983385,1499.983385,1499.983385,1499.983384,1499.983384,1499.983384,1499.983384,
   **   ~~~   ** Supply-to-demand interface deck 1 energy check value iteration history trace: 2647.032843,2647.032843,2647.032843,2647.032843,2647.032843,2647.032843,2647.032843,2647.032843,2647.032843,2647.032843,
   ** Warning ** Temperature out of range [-100. to 200.] (PsyPsatFnTemp)
   **   ~~~   **  Routine=PsyTwbFnTdbWPb, Environment=ANNUAL, at Simulation time=02/03 23:30 - 23:38
   **   ~~~   **  Input Temperature=-106.52
   ** Warning ** SimHVAC: Maximum iterations (20) exceeded for all HVAC loops, at ANNUAL, 02/04 20:15 - 20:30
   **   ~~~   ** The solution for one or more of the Air Loop HVAC systems did not appear to converge
   **   ~~~   ** Air System Named = CENTRAL SYSTEM did not converge for mass flow rate
   **   ~~~   ** Check values should be zero. Most Recent values listed first.
   **   ~~~   ** Demand-to-Supply interface mass flow rate check value iteration history trace: 1.645169E-002,1.645169E-002,1.645169E-002,1.645169E-002,1.645169E-002,1.645169E-002,1.645169E-002,1.645169E-002,1.645169E-002,1.645169E-002,
   **   ~~~   ** Supply-to-demand interface deck 1 mass flow rate check value iteration history trace: 1.645169E-002,1.645169E-002,1.645169E-002,1.645169E-002,1.645169E-002,1.645169E-002,1.645169E-002,1.645169E-002,1.645169E-002,1.645169E-002,
   **   ~~~   ** Air System Named = CENTRAL SYSTEM did not converge for energy
   **   ~~~   ** Check values should be zero. Most Recent values listed first.
   **   ~~~   ** Demand-to-Supply interface energy check value iteration history trace: 323.830340,323.830340,323.830340,323.830339,323.830339,323.830339,323.830339,323.830339,323.830339,323.830339,
   **   ~~~   ** Supply-to-demand interface deck 1 energy check value iteration history trace: 512.915946,512.915946,512.915946,512.915946,512.915946,512.915946,512.915946,512.915946,512.915946,512.915946,
   ** Warning ** SimHVAC: Maximum iterations (20) exceeded for all HVAC loops, at ANNUAL, 02/11 19:15 - 19:20
   **   ~~~   ** The solution for one or more of the Air Loop HVAC systems did not appear to converge
   **   ~~~   ** Air System Named = CENTRAL SYSTEM did not converge for mass flow rate
   **   ~~~   ** Check values should be zero. Most Recent values listed first.
   **   ~~~   ** Demand-to-Supply interface mass flow rate check value iteration history trace: 0.104389,0.104389,0.104389,0.104389,0.104389,0.104389,0.104389,0.104389,0.104389,0.104389,
   **   ~~~   ** Supply-to-demand interface deck 1 mass flow rate check value iteration history trace: 0.104389,0.104389,0.104389,0.104389,0.104389,0.104389,0.104389,0.104389,0.104389,0.104389,
   **   ~~~   ** Air System Named = CENTRAL SYSTEM did not converge for energy
   **   ~~~   ** Check values should be zero. Most Recent values listed first.
   **   ~~~   ** Demand-to-Supply interface energy check value iteration history trace: 2058.446801,2058.446801,2058.446801,2058.446801,2058.446801,2058.446800,2058.446800,2058.446800,2058.446800,2058.446800,
   **   ~~~   ** Supply-to-demand interface deck 1 energy check value iteration history trace: 3233.656757,3233.656757,3233.656757,3233.656756,3233.656756,3233.656756,3233.656756,3233.656756,3233.656755,3233.656755,
   ** Warning ** SimHVAC: Maximum iterations (20) exceeded for all HVAC loops, at ANNUAL, 03/24 15:30 - 15:45
   **   ~~~   ** The solution for one or more of the Air Loop HVAC systems did not appear to converge
   **   ~~~   ** Air System Named = CENTRAL SYSTEM did not converge for mass flow rate
   **   ~~~   ** Check values should be zero. Most Recent values listed first.
   **   ~~~   ** Demand-to-Supply interface mass flow rate check value iteration history trace: 6.968469E-002,6.968469E-002,6.968469E-002,6.968469E-002,6.968469E-002,6.968469E-002,6.968469E-002,6.968469E-002,6.968469E-002,6.968469E-002,
   **   ~~~   ** Supply-to-demand interface deck 1 mass flow rate check value iteration history trace: 6.968469E-002,6.968469E-002,6.968469E-002,6.968469E-002,6.968469E-002,6.968469E-002,6.968469E-002,6.968469E-002,6.968469E-002,6.968469E-002,
   **   ~~~   ** Air System Named = CENTRAL SYSTEM did not converge for energy
   **   ~~~   ** Check values should be zero. Most Recent values listed first.
   **   ~~~   ** Demand-to-Supply interface energy check value iteration history trace: 1371.381431,1371.381431,1371.381431,1371.381431,1371.381431,1371.381430,1371.381430,1371.381430,1371.381430,1371.381430,
   **   ~~~   ** Supply-to-demand interface deck 1 energy check value iteration history trace: 2458.467441,2458.467441,2458.467441,2458.467441,2458.467440,2458.467440,2458.467440,2458.467440,2458.467440,2458.467440,
   ** Warning ** SimHVAC: Maximum iterations (20) exceeded for all HVAC loops, at ANNUAL, 03/26 10:45 - 11:00
   **   ~~~   ** The solution for one or more of the Air Loop HVAC systems did not appear to converge
   **   ~~~   ** Air System Named = CENTRAL SYSTEM did not converge for mass flow rate
   **   ~~~   ** Check values should be zero. Most Recent values listed first.
   **   ~~~   ** Demand-to-Supply interface mass flow rate check value iteration history trace: 8.014899E-002,8.014899E-002,8.014899E-002,8.014899E-002,8.014899E-002,8.014899E-002,8.014899E-002,8.014899E-002,8.014899E-002,8.014899E-002,
   **   ~~~   ** Supply-to-demand interface deck 1 mass flow rate check value iteration history trace: 8.014899E-002,8.014899E-002,8.014899E-002,8.014899E-002,8.014899E-002,8.014899E-002,8.014899E-002,8.014899E-002,8.014899E-002,8.014899E-002,
   **   ~~~   ** Air System Named = CENTRAL SYSTEM did not converge for energy
   **   ~~~   ** Check values should be zero. Most Recent values listed first.
   **   ~~~   ** Demand-to-Supply interface energy check value iteration history trace: 1588.336193,1588.336193,1588.336193,1588.336193,1588.336192,1588.336192,1588.336192,1588.336192,1588.336192,1588.336192,
   **   ~~~   ** Supply-to-demand interface deck 1 energy check value iteration history trace: 2801.894152,2801.894152,2801.894152,2801.894152,2801.894152,2801.894152,2801.894152,2801.894151,2801.894151,2801.894151,
   ** Warning ** SimHVAC: Maximum iterations (20) exceeded for all HVAC loops, at ANNUAL, 03/26 10:45 - 10:48
   **   ~~~   ** The solution for one or more of the Air Loop HVAC systems did not appear to converge
   **   ~~~   ** Air System Named = CENTRAL SYSTEM did not converge for mass flow rate
   **   ~~~   ** Check values should be zero. Most Recent values listed first.
   **   ~~~   ** Demand-to-Supply interface mass flow rate check value iteration history trace: 8.100110E-002,8.100110E-002,8.100110E-002,8.100110E-002,8.100110E-002,8.100110E-002,8.100110E-002,8.100110E-002,8.100110E-002,8.100110E-002,
   **   ~~~   ** Supply-to-demand interface deck 1 mass flow rate check value iteration history trace: 8.100110E-002,8.100110E-002,8.100110E-002,8.100110E-002,8.100110E-002,8.100110E-002,8.100110E-002,8.100110E-002,8.100110E-002,8.100110E-002,
   **   ~~~   ** Air System Named = CENTRAL SYSTEM did not converge for energy
   **   ~~~   ** Check values should be zero. Most Recent values listed first.
   **   ~~~   ** Demand-to-Supply interface energy check value iteration history trace: 1605.208605,1605.208605,1605.208605,1605.208605,1605.208605,1605.208605,1605.208605,1605.208605,1605.208605,1605.208605,
   **   ~~~   ** Supply-to-demand interface deck 1 energy check value iteration history trace: 2831.707043,2831.707043,2831.707043,2831.707043,2831.707043,2831.707042,2831.707042,2831.707042,2831.707042,2831.707042,
   ** Warning ** SimHVAC: Maximum iterations (20) exceeded for all HVAC loops, at ANNUAL, 04/01 11:30 - 11:35
   **   ~~~   ** The solution for one or more of the Air Loop HVAC systems did not appear to converge
   **   ~~~   ** Air System Named = CENTRAL SYSTEM did not converge for mass flow rate
   **   ~~~   ** Check values should be zero. Most Recent values listed first.
   **   ~~~   ** Demand-to-Supply interface mass flow rate check value iteration history trace: 5.750430E-002,5.750430E-002,5.750430E-002,5.750430E-002,5.750430E-002,5.750430E-002,5.750430E-002,5.750430E-002,5.750430E-002,5.750430E-002,
   **   ~~~   ** Supply-to-demand interface deck 1 mass flow rate check value iteration history trace: 5.750430E-002,5.750430E-002,5.750430E-002,5.750430E-002,5.750430E-002,5.750430E-002,5.750430E-002,5.750430E-002,5.750430E-002,5.750430E-002,
   **   ~~~   ** Air System Named = CENTRAL SYSTEM did not converge for energy
   **   ~~~   ** Check values should be zero. Most Recent values listed first.
   **   ~~~   ** Demand-to-Supply interface energy check value iteration history trace: 1137.133239,1137.133239,1137.133239,1137.133239,1137.133239,1137.133239,1137.133239,1137.133239,1137.133239,1137.133239,
   **   ~~~   ** Supply-to-demand interface deck 1 energy check value iteration history trace: 2067.557032,2067.557032,2067.557032,2067.557031,2067.557031,2067.557031,2067.557031,2067.557031,2067.557031,2067.557031,
   ** Warning ** SimHVAC: Maximum iterations (20) exceeded for all HVAC loops, at ANNUAL, 05/23 08:55 - 08:57
   **   ~~~   ** The solution for one or more of the Air Loop HVAC systems did not appear to converge
   **   ~~~   ** Air System Named = CENTRAL SYSTEM did not converge for mass flow rate
   **   ~~~   ** Check values should be zero. Most Recent values listed first.
   **   ~~~   ** Demand-to-Supply interface mass flow rate check value iteration history trace: 6.471373E-002,6.471373E-002,6.471373E-002,6.471373E-002,6.471373E-002,6.471373E-002,6.471373E-002,6.471373E-002,6.471373E-002,6.471373E-002,
   **   ~~~   ** Supply-to-demand interface deck 1 mass flow rate check value iteration history trace: 6.471373E-002,6.471373E-002,6.471373E-002,6.471373E-002,6.471373E-002,6.471373E-002,6.471373E-002,6.471373E-002,6.471373E-002,6.471373E-002,
   **   ~~~   ** Air System Named = CENTRAL SYSTEM did not converge for energy
   **   ~~~   ** Check values should be zero. Most Recent values listed first.
   **   ~~~   ** Demand-to-Supply interface energy check value iteration history trace: 1278.187789,1278.187789,1278.187789,1278.187789,1278.187789,1278.187789,1278.187789,1278.187789,1278.187789,1278.187788,
   **   ~~~   ** Supply-to-demand interface deck 1 energy check value iteration history trace: 2333.148846,2333.148846,2333.148846,2333.148846,2333.148846,2333.148846,2333.148846,2333.148846,2333.148846,2333.148846,
   ** Warning ** SimHVAC: Maximum iterations (20) exceeded for all HVAC loops, at ANNUAL, 06/17 09:06 - 09:09
   **   ~~~   ** The solution for one or more of the Air Loop HVAC systems did not appear to converge
   **   ~~~   ** Air System Named = CENTRAL SYSTEM did not converge for mass flow rate
   **   ~~~   ** Check values should be zero. Most Recent values listed first.
   **   ~~~   ** Demand-to-Supply interface mass flow rate check value iteration history trace: 5.900452E-002,5.900452E-002,5.900452E-002,5.900452E-002,5.900452E-002,5.900452E-002,5.900452E-002,5.900452E-002,5.900452E-002,5.900452E-002,
   **   ~~~   ** Supply-to-demand interface deck 1 mass flow rate check value iteration history trace: 5.900452E-002,5.900452E-002,5.900452E-002,5.900452E-002,5.900452E-002,5.900452E-002,5.900452E-002,5.900452E-002,5.900452E-002,5.900452E-002,
   **   ~~~   ** Air System Named = CENTRAL SYSTEM did not converge for energy
   **   ~~~   ** Check values should be zero. Most Recent values listed first.
   **   ~~~   ** Demand-to-Supply interface energy check value iteration history trace: 1387.856633,1387.856634,1387.856634,1387.856634,1387.856634,1387.856635,1387.856635,1387.856635,1387.856635,1387.856635,
   **   ~~~   ** Supply-to-demand interface deck 1 energy check value iteration history trace: 617.198072,617.198072,617.198072,617.198072,617.198072,617.198072,617.198072,617.198072,617.198073,617.198073,
   ** Warning ** SimHVAC: Maximum iterations (20) exceeded for all HVAC loops, at ANNUAL, 06/17 09:17 - 09:19
   **   ~~~   ** The solution for one or more of the Air Loop HVAC systems did not appear to converge
   **   ~~~   ** Air System Named = CENTRAL SYSTEM did not converge for mass flow rate
   **   ~~~   ** Check values should be zero. Most Recent values listed first.
   **   ~~~   ** Demand-to-Supply interface mass flow rate check value iteration history trace: 7.923904E-002,7.923904E-002,7.923904E-002,7.923904E-002,7.923904E-002,7.923904E-002,7.923904E-002,7.923904E-002,7.923904E-002,7.923904E-002,
   **   ~~~   ** Supply-to-demand interface deck 1 mass flow rate check value iteration history trace: 7.923904E-002,7.923904E-002,7.923904E-002,7.923904E-002,7.923904E-002,7.923904E-002,7.923904E-002,7.923904E-002,7.923904E-002,7.923904E-002,
   **   ~~~   ** Air System Named = CENTRAL SYSTEM did not converge for energy
   **   ~~~   ** Check values should be zero. Most Recent values listed first.
   **   ~~~   ** Demand-to-Supply interface energy check value iteration history trace: 1864.003344,1864.003345,1864.003345,1864.003345,1864.003345,1864.003346,1864.003346,1864.003346,1864.003347,1864.003347,
   **   ~~~   ** Supply-to-demand interface deck 1 energy check value iteration history trace: 827.847895,827.847896,827.847896,827.847896,827.847896,827.847896,827.847896,827.847896,827.847896,827.847897,
   ** Warning ** SimHVAC: Maximum iterations (20) exceeded for all HVAC loops, at ANNUAL, 06/24 10:45 - 10:48
   **   ~~~   ** The solution for one or more of the Air Loop HVAC systems did not appear to converge
   **   ~~~   ** Air System Named = CENTRAL SYSTEM did not converge for mass flow rate
   **   ~~~   ** Check values should be zero. Most Recent values listed first.
   **   ~~~   ** Demand-to-Supply interface mass flow rate check value iteration history trace: 5.531352E-002,5.531352E-002,5.531352E-002,5.531352E-002,5.531352E-002,5.531352E-002,5.531352E-002,5.531352E-002,5.531352E-002,5.531352E-002,
   **   ~~~   ** Supply-to-demand interface deck 1 mass flow rate check value iteration history trace: 5.531352E-002,5.531352E-002,5.531352E-002,5.531352E-002,5.531352E-002,5.531352E-002,5.531352E-002,5.531352E-002,5.531352E-002,5.531352E-002,
   **   ~~~   ** Air System Named = CENTRAL SYSTEM did not converge for energy
   **   ~~~   ** Check values should be zero. Most Recent values listed first.
   **   ~~~   ** Demand-to-Supply interface energy check value iteration history trace: 1088.805375,1088.805375,1088.805375,1088.805375,1088.805375,1088.805375,1088.805375,1088.805375,1088.805375,1088.805375,
   **   ~~~   ** Supply-to-demand interface deck 1 energy check value iteration history trace: 1984.343918,1984.343918,1984.343918,1984.343918,1984.343918,1984.343918,1984.343918,1984.343918,1984.343918,1984.343918,
   ************* Simulation Error Summary *************
   ** Warning ** The following Report Variables were requested but not generated -- check.rdd file
   **   ~~~   ** Either the IDF did not contain these elements, the variable name is misspelled,
   **   ~~~   ** or the requested variable is an advanced output which requires Output : Diagnostics, DisplayAdvancedReportVariables;
   ************* Key=*, VarName=BASEBOARD TOTAL HEATING ENERGY, Frequency=
   ************* Key=*, VarName=WATER HEATER NATURALGAS ENERGY, Frequency=
   ************* Key=*, VarName=COOLING COIL TOTAL HEATING ENERGY, Frequency=
   ************* There are 34 unused schedules in input.
   ************* There are 388 unused week schedules in input.
   ************* There are 396 unused day schedules in input.
   ************* Use Output:Diagnostics,DisplayUnusedSchedules; to see them.
   *************
   ************* ===== Recurring Error Summary =====
   ************* The following recurring error messages occurred.
   *************
   *************  ** Warning ** "TOTAL HOT WATER LOAD" - Target water temperature should be less than or equal to the hot water temperature error continues...
   *************  **   ~~~   **   This error occurred 129747 total times;
   *************  **   ~~~   **   during Warmup 0 times;
   *************  **   ~~~   **   during Sizing 0 times.
   *************  **   ~~~   **   Max=10.478887  Min=4.770125E-005
   *************
   *************  ** Warning ** Temperature out of range [-100. to 200.] (PsyPsatFnTemp)
   *************  **   ~~~   **   This error occurred 1 total times;
   *************  **   ~~~   **   during Warmup 0 times;
   *************  **   ~~~   **   during Sizing 0 times.
   *************  **   ~~~   **   Max=-106.528225 C  Min=-106.528225 C
   *************
   *************  ** Warning ** SimHVAC: Exceeding Maximum iterations for all HVAC loops, during ANNUAL continues
   *************  **   ~~~   **   This error occurred 3 total times;
   *************  **   ~~~   **   during Warmup 0 times;
   *************  **   ~~~   **   during Sizing 0 times.
   *************
   *************
   ************* ===== Final Error Summary =====
   ************* The following error categories occurred.  Consider correcting or noting.
   ************* Nominally Unused Constructions
   ************* ..The nominally unused constructions warning is provided to alert you to potential conditions that can cause
   ************* ..extra time during simulation. Each construction is calculated by the algorithm indicated in the HeatBalanceAlgorithm
   ************* ..object. You may remove the constructions indicated (when you use the DisplayExtraWarnings option).
   *************
   ************* EnergyPlus Warmup Error Summary. During Warmup: 1 Warning; 0 Severe Errors.
   ************* EnergyPlus Sizing Error Summary. During Sizing: 4 Warning; 0 Severe Errors.
   ************* EnergyPlus Completed Successfully-- 129783 Warning; 0 Severe Errors; Elapsed Time=00hr 05min 38.82sec
