Program Version,EnergyPlus, Version 22.2.0-c249759bad, YMD=2023.09.01 18:58,
   ************* Beginning Zone Sizing Calculations
   ** Warning ** ProcessScheduleInput: Schedule:Constant="ALWAYS ON DISCRETE", Schedule Type Limits Name="ONOFF" not found -- will not be validated
   ** Warning ** Foundation:Kiva="KIVA FOUNDATION", no Interior Horizontal Insulation Material Name defined
   **   ~~~   ** Interior Horizontal Insulation Depth will not be used.
   ** Warning ** CheckUsedConstructions: There are 15 nominally unused constructions in input.
   **   ~~~   ** Each Unused construction is shown.
   ************* Construction=INTERIOR FLOOR
   ************* Construction=INTERIOR WINDOW
   ************* Construction=EXTERIOR DOOR
   ************* Construction=INTERIOR DOOR
   ************* Construction=GABLE CONSTRUCTION
   ************* Construction=CRAWL_FLOOR
   ************* Construction=INSULATED PIPE
   ************* Construction=PLAIN PIPE
   ************* Construction=TDD PIPE
   ************* Construction=TDD DOME
   ************* Construction=TDD DIFFUSER
   ************* Construction=CRAWL WALL
   ************* Construction=CEILING-FLOOR-LAYER
   ************* Construction=SLAB CONSTRUCTION W FULL R10 INSULATION
   ************* Construction=SLAB CONSTRUCTION W FULL R5 INSULATION
   ** Warning ** GetDXCoils: Coil:Heating:DX:SingleSpeed="DX_HEATING_COIL" curve values
   **   ~~~   ** ... Defrost Energy Input Ratio Function of Temperature Curve Name = DEFROSTEIR output is not equal to 1.0 (+ or - 10%) at rated conditions.
   **   ~~~   ** ... Curve output at rated conditions = 0.152
   ************* Beginning System Sizing Calculations
   ************* Beginning Plant Sizing Calculations
   ** Warning ** SizeDXCoil Coil:Cooling:DX:SingleSpeed DX_COOLING_COIL
   **   ~~~   ** ...Gross Rated Total Cooling Capacity [W] will be limited by the maximum rated volume flow per rated total capacity ratio.
   **   ~~~   ** ...DX coil volume flow rate ( m3/s ) = 0.353148
   **   ~~~   ** ...Requested capacity ( W ) = 5405.487
   **   ~~~   ** ...Requested flow/capacity ratio ( m3/s/W ) = 6.533E-005
   **   ~~~   ** ...Maximum flow/capacity ratio ( m3/s/W ) = 6.041E-005
   **   ~~~   ** ...Adjusted capacity ( W ) = 5845.858
   ** Warning ** SizeDXCoil Coil:Heating:DX:SingleSpeed DX_HEATING_COIL
   **   ~~~   ** ...Gross Rated Heating Capacity [W] will be limited by the maximum rated volume flow per rated total capacity ratio.
   **   ~~~   ** ...DX coil volume flow rate ( m3/s ) = 0.353148
   **   ~~~   ** ...Requested capacity ( W ) = 5845.858
   **   ~~~   ** ...Requested flow/capacity ratio ( m3/s/W ) = 6.041E-005
   **   ~~~   ** ...Maximum flow/capacity ratio ( m3/s/W ) = 6.041E-005
   **   ~~~   ** ...Adjusted capacity ( W ) = 5845.858
   ** Warning ** Coil:WaterHeating:AirToWaterHeatPump:Wrapped "HEAT PUMP WATER HEATER EVAPORATOR": Rated air volume flow rate per watt of rated total water heating capacity is out of range
   **   ~~~   ** Min Rated Vol Flow Per Watt=[4.027E-005], Rated Vol Flow Per Watt=[1.510E-004], Max Rated Vol Flow Per Watt=[8.056E-005]. See Input-Output Reference Manual for valid range.
   ************* SizeFan: : Potential issue with equipment sizing for Fan:OnOff HEAT PUMP WATER HEATER FAN
   **   ~~~   ** User-Specified Maximum Flow Rate [m3/s] = 0.22653
   **   ~~~   ** differs from Design Size Maximum Flow Rate [m3/s] = 7.55250E-002
   **   ~~~   ** This may, or may not, indicate mismatched component sizes.
   **   ~~~   ** Verify that the value entered is intended and is consistent with other components.
   ** Warning ** Water heater = WATER HEATER TANK:  Recovery Efficiency and Energy Factor could not be calculated during the test for standard ratings
   **   ~~~   ** Setpoint was never recovered and/or heater never turned on
   ** Warning ** Check input. Pump nominal power or motor efficiency is set to 0, for pump=MAINS PRESSURE
   ** Warning ** Output:Meter: invalid Key Name="ELECTRIC_RANGE:INTERIOREQUIPMENT:ELECTRICITY" - not found.
   ** Warning ** Output:Meter: invalid Key Name="ELECTRIC_DRYER:INTERIOREQUIPMENT:ELECTRICITY" - not found.
   ** Warning ** Output:Meter: invalid Key Name="HEATRECOVERY:ELECTRICITY" - not found.
   ** Warning ** Output:Meter: invalid Key Name="HEATING:NATURALGAS" - not found.
   ** Warning ** Output:Meter: invalid Key Name="WATERSYSTEMS:NATURALGAS" - not found.
   ** Warning ** Output:Meter: invalid Key Name="PROPANE:FACILITY" - not found.
   ** Warning ** Output:Meter: invalid Key Name="HEATING:PROPANE" - not found.
   ************* Testing Individual Branch Integrity
   ************* All Branches passed integrity testing
   ************* Testing Individual Supply Air Path Integrity
   ************* All Supply Air Paths passed integrity testing
   ************* Testing Individual Return Air Path Integrity
   ************* All Return Air Paths passed integrity testing
   ************* No node connection errors were found.
   ************* Beginning Simulation
   ** Warning ** AirflowNetwork::Solver::validate_distribution: Heat pump water heater is simulated along with an AirflowNetwork but is not included in the AirflowNetwork.
   ** Warning ** CalcEquipmentFlowRates: "TOTAL HOT WATER LOAD" - Target water temperature is greater than the hot water temperature by (0.71 C)
   **   ~~~   **  Environment=EXTREME_WINTER, at Simulation time=01/18 03:45 - 04:00
   **   ~~~   ** ...target water temperature     = 53.33 C
   **   ~~~   ** ...hot water temperature        = 52.63 C
   **   ~~~   ** ...Target water temperature should be less than or equal to the hot water temperature. Verify temperature setpoints and schedules.
   ** Warning ** SimHVAC: Maximum iterations (20) exceeded for all HVAC loops, at ANNUAL, 01/12 16:15 - 16:20
   **   ~~~   ** The solution for one or more of the Air Loop HVAC systems did not appear to converge
   **   ~~~   ** Air System Named = CENTRAL SYSTEM did not converge for mass flow rate
   **   ~~~   ** Check values should be zero. Most Recent values listed first.
   **   ~~~   ** Demand-to-Supply interface mass flow rate check value iteration history trace: 6.468406E-002,6.468406E-002,6.468406E-002,6.468406E-002,6.468406E-002,6.468406E-002,6.468406E-002,6.468406E-002,6.468406E-002,6.468406E-002,
   **   ~~~   ** Supply-to-demand interface deck 1 mass flow rate check value iteration history trace: 6.468406E-002,6.468406E-002,6.468406E-002,6.468406E-002,6.468406E-002,6.468406E-002,6.468406E-002,6.468406E-002,6.468406E-002,6.468406E-002,
   **   ~~~   ** Air System Named = CENTRAL SYSTEM did not converge for energy
   **   ~~~   ** Check values should be zero. Most Recent values listed first.
   **   ~~~   ** Demand-to-Supply interface energy check value iteration history trace: 1310.487538,1310.487537,1310.487537,1310.487537,1310.487537,1310.487537,1310.487537,1310.487537,1310.487537,1310.487537,
   **   ~~~   ** Supply-to-demand interface deck 1 energy check value iteration history trace: 2167.799848,2167.799847,2167.799847,2167.799847,2167.799847,2167.799847,2167.799847,2167.799847,2167.799847,2167.799847,
   ** Warning ** SimHVAC: Maximum iterations (20) exceeded for all HVAC loops, at ANNUAL, 03/23 12:47 - 12:48
   **   ~~~   ** The solution for one or more of the Air Loop HVAC systems did not appear to converge
   **   ~~~   ** Air System Named = CENTRAL SYSTEM did not converge for mass flow rate
   **   ~~~   ** Check values should be zero. Most Recent values listed first.
   **   ~~~   ** Demand-to-Supply interface mass flow rate check value iteration history trace: 7.785848E-002,7.785848E-002,7.785848E-002,7.785848E-002,7.785848E-002,7.785848E-002,7.785848E-002,7.785848E-002,7.785848E-002,7.785848E-002,
   **   ~~~   ** Supply-to-demand interface deck 1 mass flow rate check value iteration history trace: 7.785848E-002,7.785848E-002,7.785848E-002,7.785848E-002,7.785848E-002,7.785848E-002,7.785848E-002,7.785848E-002,7.785848E-002,7.785848E-002,
   **   ~~~   ** Air System Named = CENTRAL SYSTEM did not converge for energy
   **   ~~~   ** Check values should be zero. Most Recent values listed first.
   **   ~~~   ** Demand-to-Supply interface energy check value iteration history trace: 1543.056775,1543.056775,1543.056775,1543.056775,1543.056775,1543.056774,1543.056774,1543.056774,1543.056774,1543.056774,
   **   ~~~   ** Supply-to-demand interface deck 1 energy check value iteration history trace: 2354.831798,2354.831797,2354.831797,2354.831797,2354.831797,2354.831797,2354.831797,2354.831796,2354.831796,2354.831796,
   ** Warning ** SimHVAC: Maximum iterations (20) exceeded for all HVAC loops, at ANNUAL, 03/31 16:30 - 16:45
   **   ~~~   ** The solution for one or more of the Air Loop HVAC systems did not appear to converge
   **   ~~~   ** Air System Named = CENTRAL SYSTEM did not converge for mass flow rate
   **   ~~~   ** Check values should be zero. Most Recent values listed first.
   **   ~~~   ** Demand-to-Supply interface mass flow rate check value iteration history trace: 6.685974E-002,6.685974E-002,6.685974E-002,6.685974E-002,6.685974E-002,6.685974E-002,6.685974E-002,6.685974E-002,6.685974E-002,6.685974E-002,
   **   ~~~   ** Supply-to-demand interface deck 1 mass flow rate check value iteration history trace: 6.685974E-002,6.685974E-002,6.685974E-002,6.685974E-002,6.685974E-002,6.685974E-002,6.685974E-002,6.685974E-002,6.685974E-002,6.685974E-002,
   **   ~~~   ** Air System Named = CENTRAL SYSTEM did not converge for energy
   **   ~~~   ** Check values should be zero. Most Recent values listed first.
   **   ~~~   ** Demand-to-Supply interface energy check value iteration history trace: 1315.937814,1315.937814,1315.937814,1315.937814,1315.937814,1315.937813,1315.937813,1315.937813,1315.937813,1315.937813,
   **   ~~~   ** Supply-to-demand interface deck 1 energy check value iteration history trace: 2216.145696,2216.145696,2216.145695,2216.145695,2216.145695,2216.145695,2216.145695,2216.145695,2216.145695,2216.145695,
   ** Warning ** SimHVAC: Maximum iterations (20) exceeded for all HVAC loops, at ANNUAL, 03/31 17:00 - 17:05
   **   ~~~   ** The solution for one or more of the Air Loop HVAC systems did not appear to converge
   **   ~~~   ** Air System Named = CENTRAL SYSTEM did not converge for mass flow rate
   **   ~~~   ** Check values should be zero. Most Recent values listed first.
   **   ~~~   ** Demand-to-Supply interface mass flow rate check value iteration history trace: 6.580708E-002,6.580708E-002,6.580708E-002,6.580708E-002,6.580708E-002,6.580708E-002,6.580708E-002,6.580708E-002,6.580708E-002,6.580708E-002,
   **   ~~~   ** Supply-to-demand interface deck 1 mass flow rate check value iteration history trace: 6.580708E-002,6.580708E-002,6.580708E-002,6.580708E-002,6.580708E-002,6.580708E-002,6.580708E-002,6.580708E-002,6.580708E-002,6.580708E-002,
   **   ~~~   ** Air System Named = CENTRAL SYSTEM did not converge for energy
   **   ~~~   ** Check values should be zero. Most Recent values listed first.
   **   ~~~   ** Demand-to-Supply interface energy check value iteration history trace: 1301.950302,1301.950302,1301.950301,1301.950301,1301.950301,1301.950301,1301.950301,1301.950301,1301.950301,1301.950301,
   **   ~~~   ** Supply-to-demand interface deck 1 energy check value iteration history trace: 2178.352423,2178.352423,2178.352422,2178.352422,2178.352422,2178.352422,2178.352422,2178.352422,2178.352422,2178.352422,
   ** Warning ** SimHVAC: Maximum iterations (20) exceeded for all HVAC loops, at ANNUAL, 05/06 15:30 - 15:38
   **   ~~~   ** The solution for one or more of the Air Loop HVAC systems did not appear to converge
   **   ~~~   ** Air System Named = CENTRAL SYSTEM did not converge for mass flow rate
   **   ~~~   ** Check values should be zero. Most Recent values listed first.
   **   ~~~   ** Demand-to-Supply interface mass flow rate check value iteration history trace: 1.404679E-002,1.404679E-002,1.404679E-002,1.404679E-002,1.404679E-002,1.404679E-002,1.404679E-002,1.404679E-002,1.404679E-002,1.404679E-002,
   **   ~~~   ** Supply-to-demand interface deck 1 mass flow rate check value iteration history trace: 1.404679E-002,1.404679E-002,1.404679E-002,1.404679E-002,1.404679E-002,1.404679E-002,1.404679E-002,1.404679E-002,1.404679E-002,1.404679E-002,
   **   ~~~   ** Air System Named = CENTRAL SYSTEM did not converge for energy
   **   ~~~   ** Check values should be zero. Most Recent values listed first.
   **   ~~~   ** Demand-to-Supply interface energy check value iteration history trace: 277.946955,277.946955,277.946955,277.946955,277.946955,277.946955,277.946955,277.946955,277.946955,277.946955,
   **   ~~~   ** Supply-to-demand interface deck 1 energy check value iteration history trace: 485.421347,485.421347,485.421347,485.421347,485.421347,485.421347,485.421347,485.421347,485.421347,485.421347,
   ** Warning ** SimHVAC: Maximum iterations (20) exceeded for all HVAC loops, at ANNUAL, 05/10 07:45 - 07:48
   **   ~~~   ** The solution for one or more of the Air Loop HVAC systems did not appear to converge
   **   ~~~   ** Air System Named = CENTRAL SYSTEM did not converge for mass flow rate
   **   ~~~   ** Check values should be zero. Most Recent values listed first.
   **   ~~~   ** Demand-to-Supply interface mass flow rate check value iteration history trace: 6.421858E-002,6.421858E-002,6.421858E-002,6.421858E-002,6.421858E-002,6.421858E-002,6.421858E-002,6.421858E-002,6.421858E-002,6.421858E-002,
   **   ~~~   ** Supply-to-demand interface deck 1 mass flow rate check value iteration history trace: 6.421858E-002,6.421858E-002,6.421858E-002,6.421858E-002,6.421858E-002,6.421858E-002,6.421858E-002,6.421858E-002,6.421858E-002,6.421858E-002,
   **   ~~~   ** Air System Named = CENTRAL SYSTEM did not converge for energy
   **   ~~~   ** Check values should be zero. Most Recent values listed first.
   **   ~~~   ** Demand-to-Supply interface energy check value iteration history trace: 1267.805111,1267.805111,1267.805111,1267.805111,1267.805111,1267.805111,1267.805111,1267.805111,1267.805111,1267.805111,
   **   ~~~   ** Supply-to-demand interface deck 1 energy check value iteration history trace: 2130.148764,2130.148764,2130.148764,2130.148764,2130.148764,2130.148764,2130.148764,2130.148764,2130.148764,2130.148763,
   ** Warning ** SimHVAC: Maximum iterations (20) exceeded for all HVAC loops, at ANNUAL, 05/18 07:15 - 07:30
   **   ~~~   ** The solution for one or more of the Air Loop HVAC systems did not appear to converge
   **   ~~~   ** Air System Named = CENTRAL SYSTEM did not converge for mass flow rate
   **   ~~~   ** Check values should be zero. Most Recent values listed first.
   **   ~~~   ** Demand-to-Supply interface mass flow rate check value iteration history trace: 7.125584E-002,7.125584E-002,7.125584E-002,7.125584E-002,7.125584E-002,7.125584E-002,7.125584E-002,7.125584E-002,7.125584E-002,7.125584E-002,
   **   ~~~   ** Supply-to-demand interface deck 1 mass flow rate check value iteration history trace: 7.125584E-002,7.125584E-002,7.125584E-002,7.125584E-002,7.125584E-002,7.125584E-002,7.125584E-002,7.125584E-002,7.125584E-002,7.125584E-002,
   **   ~~~   ** Air System Named = CENTRAL SYSTEM did not converge for energy
   **   ~~~   ** Check values should be zero. Most Recent values listed first.
   **   ~~~   ** Demand-to-Supply interface energy check value iteration history trace: 1412.034528,1412.034528,1412.034528,1412.034528,1412.034528,1412.034528,1412.034528,1412.034528,1412.034527,1412.034527,
   **   ~~~   ** Supply-to-demand interface deck 1 energy check value iteration history trace: 2436.608751,2436.608751,2436.608751,2436.608751,2436.608751,2436.608750,2436.608750,2436.608750,2436.608750,2436.608750,
   ** Warning ** SimHVAC: Maximum iterations (20) exceeded for all HVAC loops, at ANNUAL, 06/23 09:10 - 09:15
   **   ~~~   ** The solution for one or more of the Air Loop HVAC systems did not appear to converge
   **   ~~~   ** Air System Named = CENTRAL SYSTEM did not converge for mass flow rate
   **   ~~~   ** Check values should be zero. Most Recent values listed first.
   **   ~~~   ** Demand-to-Supply interface mass flow rate check value iteration history trace: 0.195274,0.195274,0.195274,0.195274,0.195274,0.195274,0.195274,0.195274,0.195274,0.195274,
   **   ~~~   ** Supply-to-demand interface deck 1 mass flow rate check value iteration history trace: 0.195274,0.195274,0.195274,0.195274,0.195274,0.195274,0.195274,0.195274,0.195274,0.195274,
   **   ~~~   ** Air System Named = CENTRAL SYSTEM did not converge for energy
   **   ~~~   ** Check values should be zero. Most Recent values listed first.
   **   ~~~   ** Demand-to-Supply interface energy check value iteration history trace: 4626.407874,4626.407875,4626.407875,4626.407875,4626.407876,4626.407876,4626.407876,4626.407876,4626.407877,4626.407877,
   **   ~~~   ** Supply-to-demand interface deck 1 energy check value iteration history trace: 2135.587238,2135.587238,2135.587238,2135.587238,2135.587238,2135.587238,2135.587238,2135.587239,2135.587239,2135.587239,
   ** Warning ** SimHVAC: Maximum iterations (20) exceeded for all HVAC loops, at ANNUAL, 09/17 08:00 - 08:15
   **   ~~~   ** The solution for one or more of the Air Loop HVAC systems did not appear to converge
   **   ~~~   ** Air System Named = CENTRAL SYSTEM did not converge for mass flow rate
   **   ~~~   ** Check values should be zero. Most Recent values listed first.
   **   ~~~   ** Demand-to-Supply interface mass flow rate check value iteration history trace: 4.293629E-002,4.293629E-002,4.293629E-002,4.293629E-002,4.293629E-002,4.293629E-002,4.293629E-002,4.293629E-002,4.293629E-002,4.293629E-002,
   **   ~~~   ** Supply-to-demand interface deck 1 mass flow rate check value iteration history trace: 4.293629E-002,4.293629E-002,4.293629E-002,4.293629E-002,4.293629E-002,4.293629E-002,4.293629E-002,4.293629E-002,4.293629E-002,4.293629E-002,
   **   ~~~   ** Air System Named = CENTRAL SYSTEM did not converge for energy
   **   ~~~   ** Check values should be zero. Most Recent values listed first.
   **   ~~~   ** Demand-to-Supply interface energy check value iteration history trace: 850.309109,850.309109,850.309109,850.309109,850.309109,850.309109,850.309108,850.309108,850.309108,850.309108,
   **   ~~~   ** Supply-to-demand interface deck 1 energy check value iteration history trace: 1420.638914,1420.638914,1420.638914,1420.638914,1420.638914,1420.638914,1420.638914,1420.638914,1420.638914,1420.638914,
   ** Warning ** SimHVAC: Maximum iterations (20) exceeded for all HVAC loops, at ANNUAL, 09/18 08:32 - 08:34
   **   ~~~   ** The solution for one or more of the Air Loop HVAC systems did not appear to converge
   **   ~~~   ** Air System Named = CENTRAL SYSTEM did not converge for mass flow rate
   **   ~~~   ** Check values should be zero. Most Recent values listed first.
   **   ~~~   ** Demand-to-Supply interface mass flow rate check value iteration history trace: 5.450823E-002,5.450823E-002,5.450823E-002,5.450823E-002,5.450823E-002,5.450823E-002,5.450823E-002,5.450823E-002,5.450823E-002,5.450823E-002,
   **   ~~~   ** Supply-to-demand interface deck 1 mass flow rate check value iteration history trace: 5.450823E-002,5.450823E-002,5.450823E-002,5.450823E-002,5.450823E-002,5.450823E-002,5.450823E-002,5.450823E-002,5.450823E-002,5.450823E-002,
   **   ~~~   ** Air System Named = CENTRAL SYSTEM did not converge for energy
   **   ~~~   ** Check values should be zero. Most Recent values listed first.
   **   ~~~   ** Demand-to-Supply interface energy check value iteration history trace: 1076.930134,1076.930134,1076.930134,1076.930134,1076.930134,1076.930134,1076.930134,1076.930134,1076.930134,1076.930134,
   **   ~~~   ** Supply-to-demand interface deck 1 energy check value iteration history trace: 1932.774962,1932.774962,1932.774962,1932.774962,1932.774962,1932.774962,1932.774962,1932.774961,1932.774961,1932.774961,
   ** Warning ** SimHVAC: Maximum iterations (20) exceeded for all HVAC loops, at ANNUAL, 09/18 13:00 - 13:15
   **   ~~~   ** The solution for one or more of the Air Loop HVAC systems did not appear to converge
   **   ~~~   ** Air System Named = CENTRAL SYSTEM did not converge for mass flow rate
   **   ~~~   ** Check values should be zero. Most Recent values listed first.
   **   ~~~   ** Demand-to-Supply interface mass flow rate check value iteration history trace: 0.112685,0.112685,0.112685,0.112685,0.112685,0.112685,0.112685,0.112685,0.112685,0.112685,
   **   ~~~   ** Supply-to-demand interface deck 1 mass flow rate check value iteration history trace: 0.112685,0.112685,0.112685,0.112685,0.112685,0.112685,0.112685,0.112685,0.112685,0.112685,
   **   ~~~   ** Air System Named = CENTRAL SYSTEM did not converge for energy
   **   ~~~   ** Check values should be zero. Most Recent values listed first.
   **   ~~~   ** Demand-to-Supply interface energy check value iteration history trace: 2675.358853,2675.358854,2675.358854,2675.358854,2675.358855,2675.358855,2675.358856,2675.358856,2675.358857,2675.358857,
   **   ~~~   ** Supply-to-demand interface deck 1 energy check value iteration history trace: 1205.176400,1205.176400,1205.176400,1205.176400,1205.176400,1205.176401,1205.176401,1205.176401,1205.176401,1205.176401,
   ** Warning ** SimHVAC: Maximum iterations (20) exceeded for all HVAC loops, at ANNUAL, 09/24 07:30 - 07:35
   **   ~~~   ** The solution for one or more of the Air Loop HVAC systems did not appear to converge
   **   ~~~   ** Air System Named = CENTRAL SYSTEM did not converge for mass flow rate
   **   ~~~   ** Check values should be zero. Most Recent values listed first.
   **   ~~~   ** Demand-to-Supply interface mass flow rate check value iteration history trace: 6.864523E-002,6.864523E-002,6.864523E-002,6.864523E-002,6.864523E-002,6.864523E-002,6.864523E-002,6.864523E-002,6.864523E-002,6.864523E-002,
   **   ~~~   ** Supply-to-demand interface deck 1 mass flow rate check value iteration history trace: 6.864523E-002,6.864523E-002,6.864523E-002,6.864523E-002,6.864523E-002,6.864523E-002,6.864523E-002,6.864523E-002,6.864523E-002,6.864523E-002,
   **   ~~~   ** Air System Named = CENTRAL SYSTEM did not converge for energy
   **   ~~~   ** Check values should be zero. Most Recent values listed first.
   **   ~~~   ** Demand-to-Supply interface energy check value iteration history trace: 1609.463758,1609.463759,1609.463759,1609.463760,1609.463761,1609.463761,1609.463762,1609.463762,1609.463763,1609.463763,
   **   ~~~   ** Supply-to-demand interface deck 1 energy check value iteration history trace: 888.034523,888.034524,888.034524,888.034524,888.034525,888.034525,888.034525,888.034525,888.034526,888.034526,
   ** Warning ** SimHVAC: Maximum iterations (20) exceeded for all HVAC loops, at ANNUAL, 10/02 06:50 - 06:55
   **   ~~~   ** The solution for one or more of the Air Loop HVAC systems did not appear to converge
   **   ~~~   ** Air System Named = CENTRAL SYSTEM did not converge for mass flow rate
   **   ~~~   ** Check values should be zero. Most Recent values listed first.
   **   ~~~   ** Demand-to-Supply interface mass flow rate check value iteration history trace: 6.922772E-002,6.922772E-002,6.922772E-002,6.922772E-002,6.922772E-002,6.922772E-002,6.922772E-002,6.922772E-002,6.922772E-002,6.922772E-002,
   **   ~~~   ** Supply-to-demand interface deck 1 mass flow rate check value iteration history trace: 6.922772E-002,6.922772E-002,6.922772E-002,6.922772E-002,6.922772E-002,6.922772E-002,6.922772E-002,6.922772E-002,6.922772E-002,6.922772E-002,
   **   ~~~   ** Air System Named = CENTRAL SYSTEM did not converge for energy
   **   ~~~   ** Check values should be zero. Most Recent values listed first.
   **   ~~~   ** Demand-to-Supply interface energy check value iteration history trace: 1363.044440,1363.044440,1363.044440,1363.044440,1363.044440,1363.044440,1363.044440,1363.044440,1363.044440,1363.044440,
   **   ~~~   ** Supply-to-demand interface deck 1 energy check value iteration history trace: 2310.239014,2310.239014,2310.239014,2310.239014,2310.239014,2310.239014,2310.239013,2310.239013,2310.239013,2310.239013,
   ** Warning ** SimHVAC: Maximum iterations (20) exceeded for all HVAC loops, at ANNUAL, 10/07 06:23 - 06:30
   **   ~~~   ** The solution for one or more of the Air Loop HVAC systems did not appear to converge
   **   ~~~   ** Air System Named = CENTRAL SYSTEM did not converge for mass flow rate
   **   ~~~   ** Check values should be zero. Most Recent values listed first.
   **   ~~~   ** Demand-to-Supply interface mass flow rate check value iteration history trace: 4.994826E-002,4.994826E-002,4.994826E-002,4.994826E-002,4.994826E-002,4.994826E-002,4.994826E-002,4.994826E-002,4.994826E-002,4.994826E-002,
   **   ~~~   ** Supply-to-demand interface deck 1 mass flow rate check value iteration history trace: 4.994826E-002,4.994826E-002,4.994826E-002,4.994826E-002,4.994826E-002,4.994826E-002,4.994826E-002,4.994826E-002,4.994826E-002,4.994826E-002,
   **   ~~~   ** Air System Named = CENTRAL SYSTEM did not converge for energy
   **   ~~~   ** Check values should be zero. Most Recent values listed first.
   **   ~~~   ** Demand-to-Supply interface energy check value iteration history trace: 990.023969,990.023969,990.023969,990.023969,990.023969,990.023969,990.023969,990.023969,990.023969,990.023969,
   **   ~~~   ** Supply-to-demand interface deck 1 energy check value iteration history trace: 1757.188460,1757.188460,1757.188460,1757.188460,1757.188460,1757.188460,1757.188460,1757.188460,1757.188460,1757.188460,
   ************* Simulation Error Summary *************
   ** Warning ** The following Report Variables were requested but not generated -- check.rdd file
   **   ~~~   ** Either the IDF did not contain these elements, the variable name is misspelled,
   **   ~~~   ** or the requested variable is an advanced output which requires Output : Diagnostics, DisplayAdvancedReportVariables;
   ************* Key=*, VarName=BASEBOARD TOTAL HEATING ENERGY, Frequency=
   ************* Key=*, VarName=WATER HEATER NATURALGAS ENERGY, Frequency=
   ************* Key=*, VarName=COOLING COIL TOTAL HEATING ENERGY, Frequency=
   ************* There are 34 unused schedules in input.
   ************* There are 388 unused week schedules in input.
   ************* There are 396 unused day schedules in input.
   ************* Use Output:Diagnostics,DisplayUnusedSchedules; to see them.
   *************
   ************* ===== Recurring Error Summary =====
   ************* The following recurring error messages occurred.
   *************
   *************  ** Warning ** "TOTAL HOT WATER LOAD" - Target water temperature should be less than or equal to the hot water temperature error continues...
   *************  **   ~~~   **   This error occurred 61967 total times;
   *************  **   ~~~   **   during Warmup 0 times;
   *************  **   ~~~   **   during Sizing 0 times.
   *************  **   ~~~   **   Max=6.616077  Min=2.151112E-003
   *************
   *************  ** Warning ** SimHVAC: Exceeding Maximum iterations for all HVAC loops, during ANNUAL continues
   *************  **   ~~~   **   This error occurred 5 total times;
   *************  **   ~~~   **   during Warmup 0 times;
   *************  **   ~~~   **   during Sizing 0 times.
   *************
   *************
   ************* ===== Final Error Summary =====
   ************* The following error categories occurred.  Consider correcting or noting.
   ************* Nominally Unused Constructions
   ************* ..The nominally unused constructions warning is provided to alert you to potential conditions that can cause
   ************* ..extra time during simulation. Each construction is calculated by the algorithm indicated in the HeatBalanceAlgorithm
   ************* ..object. You may remove the constructions indicated (when you use the DisplayExtraWarnings option).
   *************
   ************* EnergyPlus Warmup Error Summary. During Warmup: 1 Warning; 0 Severe Errors.
   ************* EnergyPlus Sizing Error Summary. During Sizing: 4 Warning; 0 Severe Errors.
   ************* EnergyPlus Completed Successfully-- 62005 Warning; 0 Severe Errors; Elapsed Time=00hr 01min 34.26sec
