Program Version,EnergyPlus, Version 22.2.0-c249759bad, YMD=2023.09.01 19:47,
   ************* Beginning Zone Sizing Calculations
   ** Warning ** ProcessScheduleInput: Schedule:Constant="ALWAYS ON DISCRETE", Schedule Type Limits Name="ONOFF" not found -- will not be validated
   ** Warning ** Foundation:Kiva="KIVA FOUNDATION", no Interior Horizontal Insulation Material Name defined
   **   ~~~   ** Interior Horizontal Insulation Depth will not be used.
   ** Warning ** CheckUsedConstructions: There are 15 nominally unused constructions in input.
   **   ~~~   ** Each Unused construction is shown.
   ************* Construction=INTERIOR FLOOR
   ************* Construction=INTERIOR WINDOW
   ************* Construction=EXTERIOR DOOR
   ************* Construction=INTERIOR DOOR
   ************* Construction=GABLE CONSTRUCTION
   ************* Construction=CRAWL_FLOOR
   ************* Construction=INSULATED PIPE
   ************* Construction=PLAIN PIPE
   ************* Construction=TDD PIPE
   ************* Construction=TDD DOME
   ************* Construction=TDD DIFFUSER
   ************* Construction=CRAWL WALL
   ************* Construction=CEILING-FLOOR-LAYER
   ************* Construction=SLAB CONSTRUCTION W FULL R10 INSULATION
   ************* Construction=SLAB CONSTRUCTION W FULL R5 INSULATION
   ** Warning ** GetDXCoils: Coil:Heating:DX:SingleSpeed="DX_HEATING_COIL" curve values
   **   ~~~   ** ... Defrost Energy Input Ratio Function of Temperature Curve Name = DEFROSTEIR output is not equal to 1.0 (+ or - 10%) at rated conditions.
   **   ~~~   ** ... Curve output at rated conditions = 0.152
   ************* Beginning System Sizing Calculations
   ************* Beginning Plant Sizing Calculations
   ** Warning ** Coil:WaterHeating:AirToWaterHeatPump:Wrapped "HEAT PUMP WATER HEATER EVAPORATOR": Rated air volume flow rate per watt of rated total water heating capacity is out of range
   **   ~~~   ** Min Rated Vol Flow Per Watt=[4.027E-005], Rated Vol Flow Per Watt=[1.510E-004], Max Rated Vol Flow Per Watt=[8.056E-005]. See Input-Output Reference Manual for valid range.
   ************* SizeFan: : Potential issue with equipment sizing for Fan:OnOff HEAT PUMP WATER HEATER FAN
   **   ~~~   ** User-Specified Maximum Flow Rate [m3/s] = 0.22653
   **   ~~~   ** differs from Design Size Maximum Flow Rate [m3/s] = 7.55250E-002
   **   ~~~   ** This may, or may not, indicate mismatched component sizes.
   **   ~~~   ** Verify that the value entered is intended and is consistent with other components.
   ** Warning ** Water heater = WATER HEATER TANK:  Recovery Efficiency and Energy Factor could not be calculated during the test for standard ratings
   **   ~~~   ** Setpoint was never recovered and/or heater never turned on
   ** Warning ** Check input. Pump nominal power or motor efficiency is set to 0, for pump=MAINS PRESSURE
   ** Warning ** AirflowNetwork::Solver::validate_distribution: Heat pump water heater is simulated along with an AirflowNetwork but is not included in the AirflowNetwork.
   ** Warning ** Output:Meter: invalid Key Name="ELECTRIC_RANGE:INTERIOREQUIPMENT:ELECTRICITY" - not found.
   ** Warning ** Output:Meter: invalid Key Name="ELECTRIC_DRYER:INTERIOREQUIPMENT:ELECTRICITY" - not found.
   ** Warning ** Output:Meter: invalid Key Name="HEATRECOVERY:ELECTRICITY" - not found.
   ** Warning ** Output:Meter: invalid Key Name="HEATING:NATURALGAS" - not found.
   ** Warning ** Output:Meter: invalid Key Name="WATERSYSTEMS:NATURALGAS" - not found.
   ** Warning ** Output:Meter: invalid Key Name="PROPANE:FACILITY" - not found.
   ** Warning ** Output:Meter: invalid Key Name="HEATING:PROPANE" - not found.
   ************* Testing Individual Branch Integrity
   ************* All Branches passed integrity testing
   ************* Testing Individual Supply Air Path Integrity
   ************* All Supply Air Paths passed integrity testing
   ************* Testing Individual Return Air Path Integrity
   ************* All Return Air Paths passed integrity testing
   ************* No node connection errors were found.
   ************* Beginning Simulation
   ** Warning ** CalcEquipmentFlowRates: "TOTAL HOT WATER LOAD" - Target water temperature is greater than the hot water temperature by (5.77 C)
   **   ~~~   **  Environment=EXTREME_WINTER, at Simulation time=01/20 06:00 - 06:15
   **   ~~~   ** ...target water temperature     = 53.33 C
   **   ~~~   ** ...hot water temperature        = 47.57 C
   **   ~~~   ** ...Target water temperature should be less than or equal to the hot water temperature. Verify temperature setpoints and schedules.
   ** Warning ** SimHVAC: Maximum iterations (20) exceeded for all HVAC loops, at ANNUAL, 02/05 14:45 - 14:52
   **   ~~~   ** The solution for one or more of the Air Loop HVAC systems did not appear to converge
   **   ~~~   ** Air System Named = CENTRAL SYSTEM did not converge for mass flow rate
   **   ~~~   ** Check values should be zero. Most Recent values listed first.
   **   ~~~   ** Demand-to-Supply interface mass flow rate check value iteration history trace: 7.241859E-002,7.241859E-002,7.241859E-002,7.241859E-002,7.241859E-002,7.241859E-002,7.241859E-002,7.241859E-002,7.241859E-002,7.241859E-002,
   **   ~~~   ** Supply-to-demand interface deck 1 mass flow rate check value iteration history trace: 7.241859E-002,7.241859E-002,7.241859E-002,7.241859E-002,7.241859E-002,7.241859E-002,7.241859E-002,7.241859E-002,7.241859E-002,7.241859E-002,
   **   ~~~   ** Air System Named = CENTRAL SYSTEM did not converge for energy
   **   ~~~   ** Check values should be zero. Most Recent values listed first.
   **   ~~~   ** Demand-to-Supply interface energy check value iteration history trace: 1436.238404,1436.238404,1436.238404,1436.238403,1436.238403,1436.238403,1436.238403,1436.238403,1436.238403,1436.238403,
   **   ~~~   ** Supply-to-demand interface deck 1 energy check value iteration history trace: 2163.186281,2163.186280,2163.186280,2163.186280,2163.186280,2163.186280,2163.186280,2163.186280,2163.186279,2163.186279,
   ** Warning ** SimHVAC: Maximum iterations (20) exceeded for all HVAC loops, at ANNUAL, 03/10 11:30 - 11:45
   **   ~~~   ** The solution for one or more of the Air Loop HVAC systems did not appear to converge
   **   ~~~   ** Air System Named = CENTRAL SYSTEM did not converge for mass flow rate
   **   ~~~   ** Check values should be zero. Most Recent values listed first.
   **   ~~~   ** Demand-to-Supply interface mass flow rate check value iteration history trace: 7.227677E-002,7.227677E-002,7.227677E-002,7.227677E-002,7.227677E-002,7.227677E-002,7.227677E-002,7.227677E-002,7.227677E-002,7.227677E-002,
   **   ~~~   ** Supply-to-demand interface deck 1 mass flow rate check value iteration history trace: 7.227677E-002,7.227677E-002,7.227677E-002,7.227677E-002,7.227677E-002,7.227677E-002,7.227677E-002,7.227677E-002,7.227677E-002,7.227677E-002,
   **   ~~~   ** Air System Named = CENTRAL SYSTEM did not converge for energy
   **   ~~~   ** Check values should be zero. Most Recent values listed first.
   **   ~~~   ** Demand-to-Supply interface energy check value iteration history trace: 1432.219965,1432.219965,1432.219965,1432.219965,1432.219965,1432.219965,1432.219965,1432.219965,1432.219965,1432.219964,
   **   ~~~   ** Supply-to-demand interface deck 1 energy check value iteration history trace: 2276.096166,2276.096166,2276.096166,2276.096165,2276.096165,2276.096165,2276.096165,2276.096165,2276.096165,2276.096165,
   ** Warning ** SimHVAC: Maximum iterations (20) exceeded for all HVAC loops, at ANNUAL, 03/11 16:30 - 16:45
   **   ~~~   ** The solution for one or more of the Air Loop HVAC systems did not appear to converge
   **   ~~~   ** Air System Named = CENTRAL SYSTEM did not converge for mass flow rate
   **   ~~~   ** Check values should be zero. Most Recent values listed first.
   **   ~~~   ** Demand-to-Supply interface mass flow rate check value iteration history trace: 6.465407E-002,6.465407E-002,6.465407E-002,6.465407E-002,6.465407E-002,6.465407E-002,6.465407E-002,6.465407E-002,6.465407E-002,6.465407E-002,
   **   ~~~   ** Supply-to-demand interface deck 1 mass flow rate check value iteration history trace: 6.465407E-002,6.465407E-002,6.465407E-002,6.465407E-002,6.465407E-002,6.465407E-002,6.465407E-002,6.465407E-002,6.465407E-002,6.465407E-002,
   **   ~~~   ** Air System Named = CENTRAL SYSTEM did not converge for energy
   **   ~~~   ** Check values should be zero. Most Recent values listed first.
   **   ~~~   ** Demand-to-Supply interface energy check value iteration history trace: 1279.293862,1279.293862,1279.293862,1279.293862,1279.293861,1279.293861,1279.293861,1279.293861,1279.293861,1279.293861,
   **   ~~~   ** Supply-to-demand interface deck 1 energy check value iteration history trace: 2235.896604,2235.896604,2235.896604,2235.896603,2235.896603,2235.896603,2235.896603,2235.896603,2235.896603,2235.896603,
   ** Warning ** SimHVAC: Maximum iterations (20) exceeded for all HVAC loops, at ANNUAL, 03/13 12:30 - 12:45
   **   ~~~   ** The solution for one or more of the Air Loop HVAC systems did not appear to converge
   **   ~~~   ** Air System Named = CENTRAL SYSTEM did not converge for mass flow rate
   **   ~~~   ** Check values should be zero. Most Recent values listed first.
   **   ~~~   ** Demand-to-Supply interface mass flow rate check value iteration history trace: 3.365983E-002,3.365983E-002,3.365983E-002,3.365983E-002,3.365983E-002,3.365983E-002,3.365983E-002,3.365983E-002,3.365983E-002,3.365983E-002,
   **   ~~~   ** Supply-to-demand interface deck 1 mass flow rate check value iteration history trace: 3.365983E-002,3.365983E-002,3.365983E-002,3.365983E-002,3.365983E-002,3.365983E-002,3.365983E-002,3.365983E-002,3.365983E-002,3.365983E-002,
   **   ~~~   ** Air System Named = CENTRAL SYSTEM did not converge for energy
   **   ~~~   ** Check values should be zero. Most Recent values listed first.
   **   ~~~   ** Demand-to-Supply interface energy check value iteration history trace: 667.009697,667.009697,667.009697,667.009697,667.009697,667.009697,667.009697,667.009697,667.009697,667.009697,
   **   ~~~   ** Supply-to-demand interface deck 1 energy check value iteration history trace: 1204.030450,1204.030450,1204.030450,1204.030450,1204.030450,1204.030450,1204.030450,1204.030450,1204.030449,1204.030449,
   ** Warning ** SimHVAC: Maximum iterations (20) exceeded for all HVAC loops, at ANNUAL, 03/26 10:38 - 10:45
   **   ~~~   ** The solution for one or more of the Air Loop HVAC systems did not appear to converge
   **   ~~~   ** Air System Named = CENTRAL SYSTEM did not converge for mass flow rate
   **   ~~~   ** Check values should be zero. Most Recent values listed first.
   **   ~~~   ** Demand-to-Supply interface mass flow rate check value iteration history trace: 6.285863E-002,6.285863E-002,6.285863E-002,6.285863E-002,6.285863E-002,6.285863E-002,6.285863E-002,6.285863E-002,6.285863E-002,6.285863E-002,
   **   ~~~   ** Supply-to-demand interface deck 1 mass flow rate check value iteration history trace: 6.285863E-002,6.285863E-002,6.285863E-002,6.285863E-002,6.285863E-002,6.285863E-002,6.285863E-002,6.285863E-002,6.285863E-002,6.285863E-002,
   **   ~~~   ** Air System Named = CENTRAL SYSTEM did not converge for energy
   **   ~~~   ** Check values should be zero. Most Recent values listed first.
   **   ~~~   ** Demand-to-Supply interface energy check value iteration history trace: 1245.596932,1245.596932,1245.596932,1245.596932,1245.596932,1245.596932,1245.596932,1245.596932,1245.596932,1245.596932,
   **   ~~~   ** Supply-to-demand interface deck 1 energy check value iteration history trace: 2250.397211,2250.397211,2250.397211,2250.397210,2250.397210,2250.397210,2250.397210,2250.397210,2250.397210,2250.397210,
   ** Warning ** SimHVAC: Maximum iterations (20) exceeded for all HVAC loops, at ANNUAL, 03/27 09:15 - 09:20
   **   ~~~   ** The solution for one or more of the Air Loop HVAC systems did not appear to converge
   **   ~~~   ** Air System Named = CENTRAL SYSTEM did not converge for mass flow rate
   **   ~~~   ** Check values should be zero. Most Recent values listed first.
   **   ~~~   ** Demand-to-Supply interface mass flow rate check value iteration history trace: 7.519418E-002,7.519418E-002,7.519418E-002,7.519418E-002,7.519418E-002,7.519418E-002,7.519418E-002,7.519418E-002,7.519418E-002,7.519418E-002,
   **   ~~~   ** Supply-to-demand interface deck 1 mass flow rate check value iteration history trace: 7.519418E-002,7.519418E-002,7.519418E-002,7.519418E-002,7.519418E-002,7.519418E-002,7.519418E-002,7.519418E-002,7.519418E-002,7.519418E-002,
   **   ~~~   ** Air System Named = CENTRAL SYSTEM did not converge for energy
   **   ~~~   ** Check values should be zero. Most Recent values listed first.
   **   ~~~   ** Demand-to-Supply interface energy check value iteration history trace: 1484.881695,1484.881695,1484.881695,1484.881695,1484.881695,1484.881695,1484.881695,1484.881694,1484.881694,1484.881694,
   **   ~~~   ** Supply-to-demand interface deck 1 energy check value iteration history trace: 2547.900990,2547.900990,2547.900990,2547.900990,2547.900990,2547.900990,2547.900990,2547.900990,2547.900989,2547.900989,
   ** Warning ** SimHVAC: Maximum iterations (20) exceeded for all HVAC loops, at ANNUAL, 04/06 08:45 - 09:00
   **   ~~~   ** The solution for one or more of the Air Loop HVAC systems did not appear to converge
   **   ~~~   ** Air System Named = CENTRAL SYSTEM did not converge for mass flow rate
   **   ~~~   ** Check values should be zero. Most Recent values listed first.
   **   ~~~   ** Demand-to-Supply interface mass flow rate check value iteration history trace: 8.569278E-002,8.569278E-002,8.569278E-002,8.569278E-002,8.569278E-002,8.569278E-002,8.569278E-002,8.569278E-002,8.569278E-002,8.569278E-002,
   **   ~~~   ** Supply-to-demand interface deck 1 mass flow rate check value iteration history trace: 8.569278E-002,8.569278E-002,8.569278E-002,8.569278E-002,8.569278E-002,8.569278E-002,8.569278E-002,8.569278E-002,8.569278E-002,8.569278E-002,
   **   ~~~   ** Air System Named = CENTRAL SYSTEM did not converge for energy
   **   ~~~   ** Check values should be zero. Most Recent values listed first.
   **   ~~~   ** Demand-to-Supply interface energy check value iteration history trace: 1697.979587,1697.979587,1697.979587,1697.979587,1697.979587,1697.979586,1697.979586,1697.979586,1697.979586,1697.979586,
   **   ~~~   ** Supply-to-demand interface deck 1 energy check value iteration history trace: 2705.678998,2705.678998,2705.678998,2705.678998,2705.678997,2705.678997,2705.678997,2705.678997,2705.678997,2705.678997,
   ** Warning ** SimHVAC: Maximum iterations (20) exceeded for all HVAC loops, at ANNUAL, 05/07 23:30 - 23:45
   **   ~~~   ** The solution for one or more of the Air Loop HVAC systems did not appear to converge
   **   ~~~   ** Air System Named = CENTRAL SYSTEM did not converge for mass flow rate
   **   ~~~   ** Check values should be zero. Most Recent values listed first.
   **   ~~~   ** Demand-to-Supply interface mass flow rate check value iteration history trace: 5.767031E-002,5.767031E-002,5.767031E-002,5.767031E-002,5.767031E-002,5.767031E-002,5.767031E-002,5.767031E-002,5.767031E-002,5.767031E-002,
   **   ~~~   ** Supply-to-demand interface deck 1 mass flow rate check value iteration history trace: 5.767031E-002,5.767031E-002,5.767031E-002,5.767031E-002,5.767031E-002,5.767031E-002,5.767031E-002,5.767031E-002,5.767031E-002,5.767031E-002,
   **   ~~~   ** Air System Named = CENTRAL SYSTEM did not converge for energy
   **   ~~~   ** Check values should be zero. Most Recent values listed first.
   **   ~~~   ** Demand-to-Supply interface energy check value iteration history trace: 1067.661508,1067.661508,1067.661508,1067.661508,1067.661508,1067.661508,1067.661508,1067.661508,1067.661508,1067.661508,
   **   ~~~   ** Supply-to-demand interface deck 1 energy check value iteration history trace: 1897.023959,1897.023959,1897.023959,1897.023959,1897.023959,1897.023959,1897.023959,1897.023959,1897.023959,1897.023958,
   ** Warning ** SimHVAC: Maximum iterations (20) exceeded for all HVAC loops, at ANNUAL, 05/14 08:15 - 08:30
   **   ~~~   ** The solution for one or more of the Air Loop HVAC systems did not appear to converge
   **   ~~~   ** Air System Named = CENTRAL SYSTEM did not converge for mass flow rate
   **   ~~~   ** Check values should be zero. Most Recent values listed first.
   **   ~~~   ** Demand-to-Supply interface mass flow rate check value iteration history trace: 6.852612E-002,6.852612E-002,6.852612E-002,6.852612E-002,6.852612E-002,6.852612E-002,6.852612E-002,6.852612E-002,6.852612E-002,6.852612E-002,
   **   ~~~   ** Supply-to-demand interface deck 1 mass flow rate check value iteration history trace: 6.852612E-002,6.852612E-002,6.852612E-002,6.852612E-002,6.852612E-002,6.852612E-002,6.852612E-002,6.852612E-002,6.852612E-002,6.852612E-002,
   **   ~~~   ** Air System Named = CENTRAL SYSTEM did not converge for energy
   **   ~~~   ** Check values should be zero. Most Recent values listed first.
   **   ~~~   ** Demand-to-Supply interface energy check value iteration history trace: 1352.466214,1352.466214,1352.466214,1352.466214,1352.466214,1352.466214,1352.466214,1352.466214,1352.466214,1352.466213,
   **   ~~~   ** Supply-to-demand interface deck 1 energy check value iteration history trace: 2341.325983,2341.325983,2341.325983,2341.325983,2341.325983,2341.325983,2341.325983,2341.325982,2341.325982,2341.325982,
   ** Warning ** SimHVAC: Maximum iterations (20) exceeded for all HVAC loops, at ANNUAL, 05/20 09:15 - 09:30
   **   ~~~   ** The solution for one or more of the Air Loop HVAC systems did not appear to converge
   **   ~~~   ** Air System Named = CENTRAL SYSTEM did not converge for mass flow rate
   **   ~~~   ** Check values should be zero. Most Recent values listed first.
   **   ~~~   ** Demand-to-Supply interface mass flow rate check value iteration history trace: 6.109372E-002,6.109372E-002,6.109372E-002,6.109372E-002,6.109372E-002,6.109372E-002,6.109372E-002,6.109372E-002,6.109372E-002,6.109372E-002,
   **   ~~~   ** Supply-to-demand interface deck 1 mass flow rate check value iteration history trace: 6.109372E-002,6.109372E-002,6.109372E-002,6.109372E-002,6.109372E-002,6.109372E-002,6.109372E-002,6.109372E-002,6.109372E-002,6.109372E-002,
   **   ~~~   ** Air System Named = CENTRAL SYSTEM did not converge for energy
   **   ~~~   ** Check values should be zero. Most Recent values listed first.
   **   ~~~   ** Demand-to-Supply interface energy check value iteration history trace: 1210.210953,1210.210953,1210.210953,1210.210953,1210.210953,1210.210953,1210.210953,1210.210953,1210.210953,1210.210953,
   **   ~~~   ** Supply-to-demand interface deck 1 energy check value iteration history trace: 2167.716793,2167.716793,2167.716793,2167.716793,2167.716793,2167.716793,2167.716793,2167.716793,2167.716793,2167.716793,
   ** Warning ** SimHVAC: Maximum iterations (20) exceeded for all HVAC loops, at ANNUAL, 05/20 09:30 - 09:33
   **   ~~~   ** The solution for one or more of the Air Loop HVAC systems did not appear to converge
   **   ~~~   ** Air System Named = CENTRAL SYSTEM did not converge for mass flow rate
   **   ~~~   ** Check values should be zero. Most Recent values listed first.
   **   ~~~   ** Demand-to-Supply interface mass flow rate check value iteration history trace: 5.955262E-002,5.955262E-002,5.955262E-002,5.955262E-002,5.955262E-002,5.955262E-002,5.955262E-002,5.955262E-002,5.955262E-002,5.955262E-002,
   **   ~~~   ** Supply-to-demand interface deck 1 mass flow rate check value iteration history trace: 5.955262E-002,5.955262E-002,5.955262E-002,5.955262E-002,5.955262E-002,5.955262E-002,5.955262E-002,5.955262E-002,5.955262E-002,5.955262E-002,
   **   ~~~   ** Air System Named = CENTRAL SYSTEM did not converge for energy
   **   ~~~   ** Check values should be zero. Most Recent values listed first.
   **   ~~~   ** Demand-to-Supply interface energy check value iteration history trace: 1176.875948,1176.875948,1176.875948,1176.875948,1176.875948,1176.875948,1176.875948,1176.875948,1176.875948,1176.875948,
   **   ~~~   ** Supply-to-demand interface deck 1 energy check value iteration history trace: 2122.744907,2122.744907,2122.744907,2122.744907,2122.744907,2122.744907,2122.744906,2122.744906,2122.744906,2122.744906,
   ** Warning ** SimHVAC: Maximum iterations (20) exceeded for all HVAC loops, at ANNUAL, 05/22 08:08 - 08:15
   **   ~~~   ** The solution for one or more of the Air Loop HVAC systems did not appear to converge
   **   ~~~   ** Air System Named = CENTRAL SYSTEM did not converge for mass flow rate
   **   ~~~   ** Check values should be zero. Most Recent values listed first.
   **   ~~~   ** Demand-to-Supply interface mass flow rate check value iteration history trace: 6.275509E-002,6.275509E-002,6.275509E-002,6.275509E-002,6.275509E-002,6.275509E-002,6.275509E-002,6.275509E-002,6.275509E-002,6.275509E-002,
   **   ~~~   ** Supply-to-demand interface deck 1 mass flow rate check value iteration history trace: 6.275509E-002,6.275509E-002,6.275509E-002,6.275509E-002,6.275509E-002,6.275509E-002,6.275509E-002,6.275509E-002,6.275509E-002,6.275509E-002,
   **   ~~~   ** Air System Named = CENTRAL SYSTEM did not converge for energy
   **   ~~~   ** Check values should be zero. Most Recent values listed first.
   **   ~~~   ** Demand-to-Supply interface energy check value iteration history trace: 1230.842033,1230.842033,1230.842033,1230.842033,1230.842033,1230.842033,1230.842033,1230.842033,1230.842033,1230.842033,
   **   ~~~   ** Supply-to-demand interface deck 1 energy check value iteration history trace: 2240.176038,2240.176038,2240.176038,2240.176038,2240.176038,2240.176038,2240.176038,2240.176038,2240.176038,2240.176038,
   ** Warning ** SimHVAC: Maximum iterations (20) exceeded for all HVAC loops, at ANNUAL, 06/14 08:00 - 08:08
   **   ~~~   ** The solution for one or more of the Air Loop HVAC systems did not appear to converge
   **   ~~~   ** Air System Named = CENTRAL SYSTEM did not converge for mass flow rate
   **   ~~~   ** Check values should be zero. Most Recent values listed first.
   **   ~~~   ** Demand-to-Supply interface mass flow rate check value iteration history trace: 5.950546E-002,5.950546E-002,5.950546E-002,5.950546E-002,5.950546E-002,5.950546E-002,5.950546E-002,5.950546E-002,5.950546E-002,5.950546E-002,
   **   ~~~   ** Supply-to-demand interface deck 1 mass flow rate check value iteration history trace: 5.950546E-002,5.950546E-002,5.950546E-002,5.950546E-002,5.950546E-002,5.950546E-002,5.950546E-002,5.950546E-002,5.950546E-002,5.950546E-002,
   **   ~~~   ** Air System Named = CENTRAL SYSTEM did not converge for energy
   **   ~~~   ** Check values should be zero. Most Recent values listed first.
   **   ~~~   ** Demand-to-Supply interface energy check value iteration history trace: 1160.982719,1160.982719,1160.982719,1160.982719,1160.982719,1160.982719,1160.982719,1160.982719,1160.982719,1160.982719,
   **   ~~~   ** Supply-to-demand interface deck 1 energy check value iteration history trace: 2085.184832,2085.184832,2085.184832,2085.184832,2085.184832,2085.184832,2085.184831,2085.184831,2085.184831,2085.184831,
   ** Warning ** SimHVAC: Maximum iterations (20) exceeded for all HVAC loops, at ANNUAL, 06/26 00:15 - 00:30
   **   ~~~   ** The solution for one or more of the Air Loop HVAC systems did not appear to converge
   **   ~~~   ** Air System Named = CENTRAL SYSTEM did not converge for mass flow rate
   **   ~~~   ** Check values should be zero. Most Recent values listed first.
   **   ~~~   ** Demand-to-Supply interface mass flow rate check value iteration history trace: 0.102681,0.102681,0.102681,0.102681,0.102681,0.102681,0.102681,0.102681,0.102681,0.102681,
   **   ~~~   ** Supply-to-demand interface deck 1 mass flow rate check value iteration history trace: 0.102681,0.102681,0.102681,0.102681,0.102681,0.102681,0.102681,0.102681,0.102681,0.102681,
   **   ~~~   ** Air System Named = CENTRAL SYSTEM did not converge for energy
   **   ~~~   ** Check values should be zero. Most Recent values listed first.
   **   ~~~   ** Demand-to-Supply interface energy check value iteration history trace: 2582.204827,2582.204827,2582.204827,2582.204827,2582.204827,2582.204827,2582.204828,2582.204828,2582.204828,2582.204828,
   **   ~~~   ** Supply-to-demand interface deck 1 energy check value iteration history trace: 1285.957158,1285.957158,1285.957158,1285.957158,1285.957158,1285.957158,1285.957158,1285.957158,1285.957158,1285.957158,
   ************* Simulation Error Summary *************
   ** Warning ** The following Report Variables were requested but not generated -- check.rdd file
   **   ~~~   ** Either the IDF did not contain these elements, the variable name is misspelled,
   **   ~~~   ** or the requested variable is an advanced output which requires Output : Diagnostics, DisplayAdvancedReportVariables;
   ************* Key=*, VarName=BASEBOARD TOTAL HEATING ENERGY, Frequency=
   ************* Key=*, VarName=WATER HEATER NATURALGAS ENERGY, Frequency=
   ************* Key=*, VarName=COOLING COIL TOTAL HEATING ENERGY, Frequency=
   ************* There are 34 unused schedules in input.
   ************* There are 388 unused week schedules in input.
   ************* There are 396 unused day schedules in input.
   ************* Use Output:Diagnostics,DisplayUnusedSchedules; to see them.
   *************
   ************* ===== Recurring Error Summary =====
   ************* The following recurring error messages occurred.
   *************
   *************  ** Warning ** "TOTAL HOT WATER LOAD" - Target water temperature should be less than or equal to the hot water temperature error continues...
   *************  **   ~~~   **   This error occurred 98181 total times;
   *************  **   ~~~   **   during Warmup 0 times;
   *************  **   ~~~   **   during Sizing 0 times.
   *************  **   ~~~   **   Max=16.671769  Min=2.943396E-003
   *************
   *************  ** Warning ** SimHVAC: Exceeding Maximum iterations for all HVAC loops, during ANNUAL continues
   *************  **   ~~~   **   This error occurred 11 total times;
   *************  **   ~~~   **   during Warmup 0 times;
   *************  **   ~~~   **   during Sizing 0 times.
   *************
   *************
   ************* ===== Final Error Summary =====
   ************* The following error categories occurred.  Consider correcting or noting.
   ************* Nominally Unused Constructions
   ************* ..The nominally unused constructions warning is provided to alert you to potential conditions that can cause
   ************* ..extra time during simulation. Each construction is calculated by the algorithm indicated in the HeatBalanceAlgorithm
   ************* ..object. You may remove the constructions indicated (when you use the DisplayExtraWarnings option).
   *************
   ************* EnergyPlus Warmup Error Summary. During Warmup: 0 Warning; 0 Severe Errors.
   ************* EnergyPlus Sizing Error Summary. During Sizing: 4 Warning; 0 Severe Errors.
   ************* EnergyPlus Completed Successfully-- 98223 Warning; 0 Severe Errors; Elapsed Time=00hr 01min 19.93sec
