Program Version,EnergyPlus, Version 22.2.0-c249759bad, YMD=2023.09.01 19:00,
   ************* Beginning Zone Sizing Calculations
   ** Warning ** ProcessScheduleInput: Schedule:Constant="ALWAYS ON DISCRETE", Schedule Type Limits Name="ONOFF" not found -- will not be validated
   ** Warning ** Foundation:Kiva="KIVA FOUNDATION", no Interior Horizontal Insulation Material Name defined
   **   ~~~   ** Interior Horizontal Insulation Depth will not be used.
   ** Warning ** CheckUsedConstructions: There are 15 nominally unused constructions in input.
   **   ~~~   ** Each Unused construction is shown.
   ************* Construction=INTERIOR FLOOR
   ************* Construction=INTERIOR WINDOW
   ************* Construction=EXTERIOR DOOR
   ************* Construction=INTERIOR DOOR
   ************* Construction=GABLE CONSTRUCTION
   ************* Construction=CRAWL_FLOOR
   ************* Construction=INSULATED PIPE
   ************* Construction=PLAIN PIPE
   ************* Construction=TDD PIPE
   ************* Construction=TDD DOME
   ************* Construction=TDD DIFFUSER
   ************* Construction=CRAWL WALL
   ************* Construction=CEILING-FLOOR-LAYER
   ************* Construction=SLAB CONSTRUCTION W FULL R10 INSULATION
   ************* Construction=SLAB CONSTRUCTION W FULL R5 INSULATION
   ** Warning ** GetDXCoils: Coil:Heating:DX:SingleSpeed="DX_HEATING_COIL" curve values
   **   ~~~   ** ... Defrost Energy Input Ratio Function of Temperature Curve Name = DEFROSTEIR output is not equal to 1.0 (+ or - 10%) at rated conditions.
   **   ~~~   ** ... Curve output at rated conditions = 0.152
   ************* Beginning System Sizing Calculations
   ************* Beginning Plant Sizing Calculations
   ** Warning ** SizeDXCoil Coil:Cooling:DX:SingleSpeed DX_COOLING_COIL
   **   ~~~   ** ...Gross Rated Total Cooling Capacity [W] will be limited by the maximum rated volume flow per rated total capacity ratio.
   **   ~~~   ** ...DX coil volume flow rate ( m3/s ) = 0.367898
   **   ~~~   ** ...Requested capacity ( W ) = 5606.608
   **   ~~~   ** ...Requested flow/capacity ratio ( m3/s/W ) = 6.561E-005
   **   ~~~   ** ...Maximum flow/capacity ratio ( m3/s/W ) = 6.041E-005
   **   ~~~   ** ...Adjusted capacity ( W ) = 6090.033
   ** Warning ** Coil:WaterHeating:AirToWaterHeatPump:Wrapped "HEAT PUMP WATER HEATER EVAPORATOR": Rated air volume flow rate per watt of rated total water heating capacity is out of range
   **   ~~~   ** Min Rated Vol Flow Per Watt=[4.027E-005], Rated Vol Flow Per Watt=[1.510E-004], Max Rated Vol Flow Per Watt=[8.056E-005]. See Input-Output Reference Manual for valid range.
   ************* SizeFan: : Potential issue with equipment sizing for Fan:OnOff HEAT PUMP WATER HEATER FAN
   **   ~~~   ** User-Specified Maximum Flow Rate [m3/s] = 0.22653
   **   ~~~   ** differs from Design Size Maximum Flow Rate [m3/s] = 7.55250E-002
   **   ~~~   ** This may, or may not, indicate mismatched component sizes.
   **   ~~~   ** Verify that the value entered is intended and is consistent with other components.
   ** Warning ** Water heater = WATER HEATER TANK:  Recovery Efficiency and Energy Factor could not be calculated during the test for standard ratings
   **   ~~~   ** Setpoint was never recovered and/or heater never turned on
   ** Warning ** Check input. Pump nominal power or motor efficiency is set to 0, for pump=MAINS PRESSURE
   ** Warning ** Output:Meter: invalid Key Name="ELECTRIC_RANGE:INTERIOREQUIPMENT:ELECTRICITY" - not found.
   ** Warning ** Output:Meter: invalid Key Name="ELECTRIC_DRYER:INTERIOREQUIPMENT:ELECTRICITY" - not found.
   ** Warning ** Output:Meter: invalid Key Name="HEATRECOVERY:ELECTRICITY" - not found.
   ** Warning ** Output:Meter: invalid Key Name="HEATING:NATURALGAS" - not found.
   ** Warning ** Output:Meter: invalid Key Name="WATERSYSTEMS:NATURALGAS" - not found.
   ** Warning ** Output:Meter: invalid Key Name="PROPANE:FACILITY" - not found.
   ** Warning ** Output:Meter: invalid Key Name="HEATING:PROPANE" - not found.
   ************* Testing Individual Branch Integrity
   ************* All Branches passed integrity testing
   ************* Testing Individual Supply Air Path Integrity
   ************* All Supply Air Paths passed integrity testing
   ************* Testing Individual Return Air Path Integrity
   ************* All Return Air Paths passed integrity testing
   ************* No node connection errors were found.
   ************* Beginning Simulation
   ** Warning ** AirflowNetwork::Solver::validate_distribution: Heat pump water heater is simulated along with an AirflowNetwork but is not included in the AirflowNetwork.
   ** Severe  ** CheckWarmupConvergence: Loads Initialization, Zone="LIVING" did not converge after 25 warmup days.
   **   ~~~   ** See Warmup Convergence Information in .eio file for details.
   **   ~~~   ** ...Environment(SizingPeriod)="EXTREME_WINTER"
   **   ~~~   ** ..Max Temp Comparison = 9.46E-003 vs Temperature Convergence Tolerance=5.00E-002 - Pass Convergence
   **   ~~~   ** ..Min Temp Comparison = 1.01E-003 vs Temperature Convergence Tolerance=5.00E-002 - Pass Convergence
   **   ~~~   ** ..Max Heat Load Comparison = 5.3302E-002 vs Loads Convergence Tolerance=5.00E-002 - Fail Convergence
   **   ~~~   ** ..Max Cool Load Comparison = 4.9757E-005 vs Loads Convergence Tolerance=5.00E-002 - Pass Convergence
   ** Severe  ** CheckWarmupConvergence: Loads Initialization, Zone="ATTIC" did not converge after 25 warmup days.
   **   ~~~   ** ...Environment(SizingPeriod)="EXTREME_WINTER"
   **   ~~~   ** ..Max Temp Comparison = 4.92E-002 vs Temperature Convergence Tolerance=5.00E-002 - Pass Convergence
   **   ~~~   ** ..Min Temp Comparison = 8.93E-002 vs Temperature Convergence Tolerance=5.00E-002 - Fail Convergence
   **   ~~~   ** ..Max Heat Load Comparison = 0.0000 vs Loads Convergence Tolerance=5.00E-002 - Pass Convergence
   **   ~~~   ** ..Max Cool Load Comparison = 0.0000 vs Loads Convergence Tolerance=5.00E-002 - Pass Convergence
   ** Warning ** CalcEquipmentFlowRates: "TOTAL HOT WATER LOAD" - Target water temperature is greater than the hot water temperature by (2.61 C)
   **   ~~~   **  Environment=EXTREME_WINTER, at Simulation time=01/20 03:45 - 04:00
   **   ~~~   ** ...target water temperature     = 53.33 C
   **   ~~~   ** ...hot water temperature        = 50.73 C
   **   ~~~   ** ...Target water temperature should be less than or equal to the hot water temperature. Verify temperature setpoints and schedules.
   ** Warning ** SimHVAC: Maximum iterations (20) exceeded for all HVAC loops, at EXTREME_WINTER, 01/21 16:00 - 16:15
   **   ~~~   ** The solution for one or more of the Air Loop HVAC systems did not appear to converge
   **   ~~~   ** Air System Named = CENTRAL SYSTEM did not converge for mass flow rate
   **   ~~~   ** Check values should be zero. Most Recent values listed first.
   **   ~~~   ** Demand-to-Supply interface mass flow rate check value iteration history trace: 7.310676E-002,7.310676E-002,7.310676E-002,7.310676E-002,7.310676E-002,7.310676E-002,7.310676E-002,7.310676E-002,7.310676E-002,7.310676E-002,
   **   ~~~   ** Supply-to-demand interface deck 1 mass flow rate check value iteration history trace: 7.310676E-002,7.310676E-002,7.310676E-002,7.310676E-002,7.310676E-002,7.310676E-002,7.310676E-002,7.310676E-002,7.310676E-002,7.310676E-002,
   **   ~~~   ** Air System Named = CENTRAL SYSTEM did not converge for energy
   **   ~~~   ** Check values should be zero. Most Recent values listed first.
   **   ~~~   ** Demand-to-Supply interface energy check value iteration history trace: 1449.144980,1449.144980,1449.144980,1449.144980,1449.144980,1449.144980,1449.144980,1449.144980,1449.144980,1449.144979,
   **   ~~~   ** Supply-to-demand interface deck 1 energy check value iteration history trace: 2168.837804,2168.837804,2168.837804,2168.837803,2168.837803,2168.837803,2168.837803,2168.837803,2168.837803,2168.837803,
   ** Warning ** SimHVAC: Maximum iterations (20) exceeded for all HVAC loops, at EXTREME_SUMMER, 08/09 02:30 - 02:45
   **   ~~~   ** The solution for one or more of the Air Loop HVAC systems did not appear to converge
   **   ~~~   ** Air System Named = CENTRAL SYSTEM did not converge for mass flow rate
   **   ~~~   ** Check values should be zero. Most Recent values listed first.
   **   ~~~   ** Demand-to-Supply interface mass flow rate check value iteration history trace: 8.242348E-002,8.242348E-002,8.242348E-002,8.242348E-002,8.242348E-002,8.242348E-002,8.242348E-002,8.242348E-002,8.242348E-002,8.242348E-002,
   **   ~~~   ** Supply-to-demand interface deck 1 mass flow rate check value iteration history trace: 8.242348E-002,8.242348E-002,8.242348E-002,8.242348E-002,8.242348E-002,8.242348E-002,8.242348E-002,8.242348E-002,8.242348E-002,8.242348E-002,
   **   ~~~   ** Air System Named = CENTRAL SYSTEM did not converge for energy
   **   ~~~   ** Check values should be zero. Most Recent values listed first.
   **   ~~~   ** Demand-to-Supply interface energy check value iteration history trace: 2031.327773,2031.327774,2031.327774,2031.327775,2031.327776,2031.327777,2031.327777,2031.327778,2031.327779,2031.327780,
   **   ~~~   ** Supply-to-demand interface deck 1 energy check value iteration history trace: 1117.716569,1117.716569,1117.716569,1117.716570,1117.716570,1117.716571,1117.716571,1117.716571,1117.716572,1117.716572,
   ** Warning ** SimHVAC: Maximum iterations (20) exceeded for all HVAC loops, at ANNUAL, 02/25 10:17 - 10:20
   **   ~~~   ** The solution for one or more of the Air Loop HVAC systems did not appear to converge
   **   ~~~   ** Air System Named = CENTRAL SYSTEM did not converge for mass flow rate
   **   ~~~   ** Check values should be zero. Most Recent values listed first.
   **   ~~~   ** Demand-to-Supply interface mass flow rate check value iteration history trace: 6.514893E-002,6.514893E-002,6.514893E-002,6.514893E-002,6.514893E-002,6.514893E-002,6.514893E-002,6.514893E-002,6.514893E-002,6.514893E-002,
   **   ~~~   ** Supply-to-demand interface deck 1 mass flow rate check value iteration history trace: 6.514893E-002,6.514893E-002,6.514893E-002,6.514893E-002,6.514893E-002,6.514893E-002,6.514893E-002,6.514893E-002,6.514893E-002,6.514893E-002,
   **   ~~~   ** Air System Named = CENTRAL SYSTEM did not converge for energy
   **   ~~~   ** Check values should be zero. Most Recent values listed first.
   **   ~~~   ** Demand-to-Supply interface energy check value iteration history trace: 1291.086785,1291.086785,1291.086785,1291.086785,1291.086785,1291.086785,1291.086785,1291.086784,1291.086784,1291.086784,
   **   ~~~   ** Supply-to-demand interface deck 1 energy check value iteration history trace: 2222.004246,2222.004246,2222.004246,2222.004246,2222.004246,2222.004246,2222.004246,2222.004246,2222.004246,2222.004245,
   ** Warning ** SimHVAC: Maximum iterations (20) exceeded for all HVAC loops, at ANNUAL, 02/25 10:30 - 10:33
   **   ~~~   ** The solution for one or more of the Air Loop HVAC systems did not appear to converge
   **   ~~~   ** Air System Named = CENTRAL SYSTEM did not converge for mass flow rate
   **   ~~~   ** Check values should be zero. Most Recent values listed first.
   **   ~~~   ** Demand-to-Supply interface mass flow rate check value iteration history trace: 6.222281E-002,6.222281E-002,6.222281E-002,6.222281E-002,6.222281E-002,6.222281E-002,6.222281E-002,6.222281E-002,6.222281E-002,6.222281E-002,
   **   ~~~   ** Supply-to-demand interface deck 1 mass flow rate check value iteration history trace: 6.222281E-002,6.222281E-002,6.222281E-002,6.222281E-002,6.222281E-002,6.222281E-002,6.222281E-002,6.222281E-002,6.222281E-002,6.222281E-002,
   **   ~~~   ** Air System Named = CENTRAL SYSTEM did not converge for energy
   **   ~~~   ** Check values should be zero. Most Recent values listed first.
   **   ~~~   ** Demand-to-Supply interface energy check value iteration history trace: 1230.264734,1230.264734,1230.264734,1230.264734,1230.264733,1230.264733,1230.264733,1230.264733,1230.264733,1230.264733,
   **   ~~~   ** Supply-to-demand interface deck 1 energy check value iteration history trace: 2137.422855,2137.422855,2137.422855,2137.422855,2137.422855,2137.422855,2137.422855,2137.422855,2137.422855,2137.422855,
   ** Warning ** SimHVAC: Maximum iterations (20) exceeded for all HVAC loops, at ANNUAL, 02/26 20:15 - 20:30
   **   ~~~   ** The solution for one or more of the Air Loop HVAC systems did not appear to converge
   **   ~~~   ** Air System Named = CENTRAL SYSTEM did not converge for mass flow rate
   **   ~~~   ** Check values should be zero. Most Recent values listed first.
   **   ~~~   ** Demand-to-Supply interface mass flow rate check value iteration history trace: 5.357356E-002,5.357356E-002,5.357356E-002,5.357356E-002,5.357356E-002,5.357356E-002,5.357356E-002,5.357356E-002,5.357356E-002,5.357356E-002,
   **   ~~~   ** Supply-to-demand interface deck 1 mass flow rate check value iteration history trace: 5.357356E-002,5.357356E-002,5.357356E-002,5.357356E-002,5.357356E-002,5.357356E-002,5.357356E-002,5.357356E-002,5.357356E-002,5.357356E-002,
   **   ~~~   ** Air System Named = CENTRAL SYSTEM did not converge for energy
   **   ~~~   ** Check values should be zero. Most Recent values listed first.
   **   ~~~   ** Demand-to-Supply interface energy check value iteration history trace: 1062.259218,1062.259218,1062.259218,1062.259218,1062.259218,1062.259218,1062.259218,1062.259218,1062.259218,1062.259218,
   **   ~~~   ** Supply-to-demand interface deck 1 energy check value iteration history trace: 1885.721242,1885.721242,1885.721242,1885.721242,1885.721242,1885.721242,1885.721242,1885.721242,1885.721242,1885.721242,
   ** Warning ** SimHVAC: Maximum iterations (20) exceeded for all HVAC loops, at ANNUAL, 04/27 08:18 - 08:21
   **   ~~~   ** The solution for one or more of the Air Loop HVAC systems did not appear to converge
   **   ~~~   ** Air System Named = CENTRAL SYSTEM did not converge for mass flow rate
   **   ~~~   ** Check values should be zero. Most Recent values listed first.
   **   ~~~   ** Demand-to-Supply interface mass flow rate check value iteration history trace: 6.521318E-002,6.521318E-002,6.521318E-002,6.521318E-002,6.521318E-002,6.521318E-002,6.521318E-002,6.521318E-002,6.521318E-002,6.521318E-002,
   **   ~~~   ** Supply-to-demand interface deck 1 mass flow rate check value iteration history trace: 6.521318E-002,6.521318E-002,6.521318E-002,6.521318E-002,6.521318E-002,6.521318E-002,6.521318E-002,6.521318E-002,6.521318E-002,6.521318E-002,
   **   ~~~   ** Air System Named = CENTRAL SYSTEM did not converge for energy
   **   ~~~   ** Check values should be zero. Most Recent values listed first.
   **   ~~~   ** Demand-to-Supply interface energy check value iteration history trace: 1286.921786,1286.921786,1286.921786,1286.921786,1286.921786,1286.921786,1286.921786,1286.921786,1286.921786,1286.921785,
   **   ~~~   ** Supply-to-demand interface deck 1 energy check value iteration history trace: 2278.764269,2278.764269,2278.764269,2278.764269,2278.764269,2278.764269,2278.764269,2278.764269,2278.764269,2278.764269,
   ** Warning ** SimHVAC: Maximum iterations (20) exceeded for all HVAC loops, at ANNUAL, 05/10 09:23 - 09:26
   **   ~~~   ** The solution for one or more of the Air Loop HVAC systems did not appear to converge
   **   ~~~   ** Air System Named = CENTRAL SYSTEM did not converge for mass flow rate
   **   ~~~   ** Check values should be zero. Most Recent values listed first.
   **   ~~~   ** Demand-to-Supply interface mass flow rate check value iteration history trace: 0.176236,0.176236,0.176236,0.176236,0.176236,0.176236,0.176236,0.176236,0.176236,0.176236,
   **   ~~~   ** Supply-to-demand interface deck 1 mass flow rate check value iteration history trace: 0.176236,0.176236,0.176236,0.176236,0.176236,0.176236,0.176236,0.176236,0.176236,0.176236,
   **   ~~~   ** Air System Named = CENTRAL SYSTEM did not converge for energy
   **   ~~~   ** Check values should be zero. Most Recent values listed first.
   **   ~~~   ** Demand-to-Supply interface energy check value iteration history trace: 4180.129888,4180.129888,4180.129888,4180.129889,4180.129889,4180.129889,4180.129890,4180.129890,4180.129890,4180.129890,
   **   ~~~   ** Supply-to-demand interface deck 1 energy check value iteration history trace: 2303.604963,2303.604964,2303.604964,2303.604964,2303.604964,2303.604964,2303.604964,2303.604965,2303.604965,2303.604965,
   ** Warning ** SimHVAC: Maximum iterations (20) exceeded for all HVAC loops, at ANNUAL, 05/19 05:08 - 05:15
   **   ~~~   ** The solution for one or more of the Air Loop HVAC systems did not appear to converge
   **   ~~~   ** Air System Named = CENTRAL SYSTEM did not converge for energy
   **   ~~~   ** Check values should be zero. Most Recent values listed first.
   **   ~~~   ** Demand-to-Supply interface energy check value iteration history trace: 159.141007,159.141007,159.141008,159.141008,159.141008,159.141008,159.141008,159.141008,159.141008,159.141008,
   **   ~~~   ** Supply-to-demand interface deck 1 energy check value iteration history trace: 83.630957,83.630957,83.630957,83.630957,83.630957,83.630957,83.630957,83.630957,83.630957,83.630957,
   ** Warning ** SimHVAC: Maximum iterations (20) exceeded for all HVAC loops, at ANNUAL, 10/17 07:30 - 07:35
   **   ~~~   ** The solution for one or more of the Air Loop HVAC systems did not appear to converge
   **   ~~~   ** Air System Named = CENTRAL SYSTEM did not converge for mass flow rate
   **   ~~~   ** Check values should be zero. Most Recent values listed first.
   **   ~~~   ** Demand-to-Supply interface mass flow rate check value iteration history trace: 5.981399E-002,5.981399E-002,5.981399E-002,5.981399E-002,5.981399E-002,5.981399E-002,5.981399E-002,5.981399E-002,5.981399E-002,5.981399E-002,
   **   ~~~   ** Supply-to-demand interface deck 1 mass flow rate check value iteration history trace: 5.981399E-002,5.981399E-002,5.981399E-002,5.981399E-002,5.981399E-002,5.981399E-002,5.981399E-002,5.981399E-002,5.981399E-002,5.981399E-002,
   **   ~~~   ** Air System Named = CENTRAL SYSTEM did not converge for energy
   **   ~~~   ** Check values should be zero. Most Recent values listed first.
   **   ~~~   ** Demand-to-Supply interface energy check value iteration history trace: 1183.465601,1183.465601,1183.465601,1183.465601,1183.465601,1183.465601,1183.465601,1183.465601,1183.465601,1183.465601,
   **   ~~~   ** Supply-to-demand interface deck 1 energy check value iteration history trace: 2054.450857,2054.450857,2054.450857,2054.450857,2054.450857,2054.450857,2054.450857,2054.450857,2054.450857,2054.450856,
   ** Warning ** SimHVAC: Maximum iterations (20) exceeded for all HVAC loops, at ANNUAL, 10/22 07:45 - 08:00
   **   ~~~   ** The solution for one or more of the Air Loop HVAC systems did not appear to converge
   **   ~~~   ** Air System Named = CENTRAL SYSTEM did not converge for mass flow rate
   **   ~~~   ** Check values should be zero. Most Recent values listed first.
   **   ~~~   ** Demand-to-Supply interface mass flow rate check value iteration history trace: 7.267228E-002,7.267228E-002,7.267228E-002,7.267228E-002,7.267228E-002,7.267228E-002,7.267228E-002,7.267228E-002,7.267228E-002,7.267228E-002,
   **   ~~~   ** Supply-to-demand interface deck 1 mass flow rate check value iteration history trace: 7.267228E-002,7.267228E-002,7.267228E-002,7.267228E-002,7.267228E-002,7.267228E-002,7.267228E-002,7.267228E-002,7.267228E-002,7.267228E-002,
   **   ~~~   ** Air System Named = CENTRAL SYSTEM did not converge for energy
   **   ~~~   ** Check values should be zero. Most Recent values listed first.
   **   ~~~   ** Demand-to-Supply interface energy check value iteration history trace: 1439.923744,1439.923743,1439.923743,1439.923743,1439.923743,1439.923743,1439.923743,1439.923743,1439.923743,1439.923743,
   **   ~~~   ** Supply-to-demand interface deck 1 energy check value iteration history trace: 2240.757747,2240.757746,2240.757746,2240.757746,2240.757746,2240.757746,2240.757746,2240.757746,2240.757745,2240.757745,
   ** Warning ** SimHVAC: Maximum iterations (20) exceeded for all HVAC loops, at ANNUAL, 10/22 19:53 - 20:00
   **   ~~~   ** The solution for one or more of the Air Loop HVAC systems did not appear to converge
   **   ~~~   ** Air System Named = CENTRAL SYSTEM did not converge for mass flow rate
   **   ~~~   ** Check values should be zero. Most Recent values listed first.
   **   ~~~   ** Demand-to-Supply interface mass flow rate check value iteration history trace: 5.999246E-002,5.999246E-002,5.999246E-002,5.999246E-002,5.999246E-002,5.999246E-002,5.999246E-002,5.999246E-002,5.999246E-002,5.999246E-002,
   **   ~~~   ** Supply-to-demand interface deck 1 mass flow rate check value iteration history trace: 5.999246E-002,5.999246E-002,5.999246E-002,5.999246E-002,5.999246E-002,5.999246E-002,5.999246E-002,5.999246E-002,5.999246E-002,5.999246E-002,
   **   ~~~   ** Air System Named = CENTRAL SYSTEM did not converge for energy
   **   ~~~   ** Check values should be zero. Most Recent values listed first.
   **   ~~~   ** Demand-to-Supply interface energy check value iteration history trace: 1423.624708,1423.624709,1423.624709,1423.624709,1423.624709,1423.624709,1423.624709,1423.624709,1423.624709,1423.624709,
   **   ~~~   ** Supply-to-demand interface deck 1 energy check value iteration history trace: 532.339509,532.339509,532.339509,532.339509,532.339509,532.339509,532.339509,532.339509,532.339509,532.339509,
   ** Warning ** SimHVAC: Maximum iterations (20) exceeded for all HVAC loops, at ANNUAL, 10/23 23:00 - 23:08
   **   ~~~   ** The solution for one or more of the Air Loop HVAC systems did not appear to converge
   **   ~~~   ** Air System Named = CENTRAL SYSTEM did not converge for mass flow rate
   **   ~~~   ** Check values should be zero. Most Recent values listed first.
   **   ~~~   ** Demand-to-Supply interface mass flow rate check value iteration history trace: 8.592413E-002,8.592413E-002,8.592413E-002,8.592413E-002,8.592413E-002,8.592413E-002,8.592413E-002,8.592413E-002,8.592413E-002,8.592413E-002,
   **   ~~~   ** Supply-to-demand interface deck 1 mass flow rate check value iteration history trace: 8.592413E-002,8.592413E-002,8.592413E-002,8.592413E-002,8.592413E-002,8.592413E-002,8.592413E-002,8.592413E-002,8.592413E-002,8.592413E-002,
   **   ~~~   ** Air System Named = CENTRAL SYSTEM did not converge for energy
   **   ~~~   ** Check values should be zero. Most Recent values listed first.
   **   ~~~   ** Demand-to-Supply interface energy check value iteration history trace: 1607.237345,1607.237345,1607.237345,1607.237345,1607.237345,1607.237345,1607.237345,1607.237345,1607.237344,1607.237344,
   **   ~~~   ** Supply-to-demand interface deck 1 energy check value iteration history trace: 2501.364969,2501.364969,2501.364969,2501.364968,2501.364968,2501.364968,2501.364968,2501.364968,2501.364968,2501.364967,
   ** Warning ** SimHVAC: Maximum iterations (20) exceeded for all HVAC loops, at ANNUAL, 11/21 11:30 - 11:45
   **   ~~~   ** The solution for one or more of the Air Loop HVAC systems did not appear to converge
   **   ~~~   ** Air System Named = CENTRAL SYSTEM did not converge for mass flow rate
   **   ~~~   ** Check values should be zero. Most Recent values listed first.
   **   ~~~   ** Demand-to-Supply interface mass flow rate check value iteration history trace: 5.922994E-002,5.922994E-002,5.922994E-002,5.922994E-002,5.922994E-002,5.922994E-002,5.922994E-002,5.922994E-002,5.922994E-002,5.922994E-002,
   **   ~~~   ** Supply-to-demand interface deck 1 mass flow rate check value iteration history trace: 5.922994E-002,5.922994E-002,5.922994E-002,5.922994E-002,5.922994E-002,5.922994E-002,5.922994E-002,5.922994E-002,5.922994E-002,5.922994E-002,
   **   ~~~   ** Air System Named = CENTRAL SYSTEM did not converge for energy
   **   ~~~   ** Check values should be zero. Most Recent values listed first.
   **   ~~~   ** Demand-to-Supply interface energy check value iteration history trace: 1173.735839,1173.735839,1173.735839,1173.735839,1173.735839,1173.735839,1173.735839,1173.735839,1173.735839,1173.735839,
   **   ~~~   ** Supply-to-demand interface deck 1 energy check value iteration history trace: 2087.209700,2087.209700,2087.209700,2087.209700,2087.209700,2087.209699,2087.209699,2087.209699,2087.209699,2087.209699,
   ** Warning ** SimHVAC: Maximum iterations (20) exceeded for all HVAC loops, at ANNUAL, 12/01 00:15 - 00:30
   **   ~~~   ** The solution for one or more of the Air Loop HVAC systems did not appear to converge
   **   ~~~   ** Air System Named = CENTRAL SYSTEM did not converge for mass flow rate
   **   ~~~   ** Check values should be zero. Most Recent values listed first.
   **   ~~~   ** Demand-to-Supply interface mass flow rate check value iteration history trace: 5.406976E-002,5.406976E-002,5.406976E-002,5.406976E-002,5.406976E-002,5.406976E-002,5.406976E-002,5.406976E-002,5.406976E-002,5.406976E-002,
   **   ~~~   ** Supply-to-demand interface deck 1 mass flow rate check value iteration history trace: 5.406976E-002,5.406976E-002,5.406976E-002,5.406976E-002,5.406976E-002,5.406976E-002,5.406976E-002,5.406976E-002,5.406976E-002,5.406976E-002,
   **   ~~~   ** Air System Named = CENTRAL SYSTEM did not converge for energy
   **   ~~~   ** Check values should be zero. Most Recent values listed first.
   **   ~~~   ** Demand-to-Supply interface energy check value iteration history trace: 1015.517360,1015.517360,1015.517360,1015.517360,1015.517360,1015.517360,1015.517360,1015.517360,1015.517360,1015.517360,
   **   ~~~   ** Supply-to-demand interface deck 1 energy check value iteration history trace: 1872.152990,1872.152990,1872.152990,1872.152990,1872.152990,1872.152990,1872.152990,1872.152990,1872.152990,1872.152989,
   ************* Simulation Error Summary *************
   ** Warning ** The following Report Variables were requested but not generated -- check.rdd file
   **   ~~~   ** Either the IDF did not contain these elements, the variable name is misspelled,
   **   ~~~   ** or the requested variable is an advanced output which requires Output : Diagnostics, DisplayAdvancedReportVariables;
   ************* Key=*, VarName=BASEBOARD TOTAL HEATING ENERGY, Frequency=
   ************* Key=*, VarName=WATER HEATER NATURALGAS ENERGY, Frequency=
   ************* Key=*, VarName=COOLING COIL TOTAL HEATING ENERGY, Frequency=
   ************* There are 34 unused schedules in input.
   ************* There are 388 unused week schedules in input.
   ************* There are 396 unused day schedules in input.
   ************* Use Output:Diagnostics,DisplayUnusedSchedules; to see them.
   *************
   ************* ===== Recurring Error Summary =====
   ************* The following recurring error messages occurred.
   *************
   *************  ** Warning ** "TOTAL HOT WATER LOAD" - Target water temperature should be less than or equal to the hot water temperature error continues...
   *************  **   ~~~   **   This error occurred 53291 total times;
   *************  **   ~~~   **   during Warmup 0 times;
   *************  **   ~~~   **   during Sizing 0 times.
   *************  **   ~~~   **   Max=6.874047  Min=2.149000E-004
   *************
   *************
   ************* ===== Final Error Summary =====
   ************* The following error categories occurred.  Consider correcting or noting.
   ************* Loads Initialization did not Converge
   ************* ..1) very high thermal mass such as very thick concrete (solution: increase max number of warmup
   ************* ..   days in the BUILDING object);
   ************* ..2) moderate mass and inadequate space conditioning such that the building keeps getting warmer
   ************* ..   and warmer on successive days (solution: add HVAC, check building thermal properties,
   ************* ..   check if infiltration is included, make sure HVAC properly controlled);
   ************* ..3) a soil layer modeled below the concrete slab - (solution remove this layer and read about
   ************* ..   ground temperatures in the Auxiliary Programs document).
   ************* ..4) unreasonable (too small) limits in the BUILDING object for temperature (.4 default) or
   ************* ..   loads tolerances (.04 default)
   ************* Nominally Unused Constructions
   ************* ..The nominally unused constructions warning is provided to alert you to potential conditions that can cause
   ************* ..extra time during simulation. Each construction is calculated by the algorithm indicated in the HeatBalanceAlgorithm
   ************* ..object. You may remove the constructions indicated (when you use the DisplayExtraWarnings option).
   *************
   ************* EnergyPlus Warmup Error Summary. During Warmup: 1 Warning; 2 Severe Errors.
   ************* EnergyPlus Sizing Error Summary. During Sizing: 4 Warning; 0 Severe Errors.
   ************* EnergyPlus Completed Successfully-- 53323 Warning; 2 Severe Errors; Elapsed Time=00hr 01min 32.96sec
