Program Version,EnergyPlus, Version 22.2.0-c249759bad, YMD=2023.09.01 17:43,
   ************* Beginning Zone Sizing Calculations
   ** Warning ** ProcessScheduleInput: Schedule:Constant="ALWAYS ON DISCRETE", Schedule Type Limits Name="ONOFF" not found -- will not be validated
   ** Warning ** Foundation:Kiva="KIVA FOUNDATION", no Interior Horizontal Insulation Material Name defined
   **   ~~~   ** Interior Horizontal Insulation Depth will not be used.
   ** Warning ** CheckUsedConstructions: There are 15 nominally unused constructions in input.
   **   ~~~   ** Each Unused construction is shown.
   ************* Construction=INTERIOR FLOOR
   ************* Construction=INTERIOR WINDOW
   ************* Construction=EXTERIOR DOOR
   ************* Construction=INTERIOR DOOR
   ************* Construction=GABLE CONSTRUCTION
   ************* Construction=CRAWL_FLOOR
   ************* Construction=INSULATED PIPE
   ************* Construction=PLAIN PIPE
   ************* Construction=TDD PIPE
   ************* Construction=TDD DOME
   ************* Construction=TDD DIFFUSER
   ************* Construction=CRAWL WALL
   ************* Construction=CEILING-FLOOR-LAYER
   ************* Construction=SLAB CONSTRUCTION W FULL R10 INSULATION
   ************* Construction=SLAB CONSTRUCTION W FULL R5 INSULATION
   ** Warning ** GetDXCoils: Coil:Heating:DX:SingleSpeed="DX_HEATING_COIL" curve values
   **   ~~~   ** ... Defrost Energy Input Ratio Function of Temperature Curve Name = DEFROSTEIR output is not equal to 1.0 (+ or - 10%) at rated conditions.
   **   ~~~   ** ... Curve output at rated conditions = 0.152
   ************* Beginning System Sizing Calculations
   ************* Beginning Plant Sizing Calculations
   ** Warning ** SizeDXCoil Coil:Cooling:DX:SingleSpeed DX_COOLING_COIL
   **   ~~~   ** ...Gross Rated Total Cooling Capacity [W] will be limited by the maximum rated volume flow per rated total capacity ratio.
   **   ~~~   ** ...DX coil volume flow rate ( m3/s ) = 0.410632
   **   ~~~   ** ...Requested capacity ( W ) = 6625.057
   **   ~~~   ** ...Requested flow/capacity ratio ( m3/s/W ) = 6.198E-005
   **   ~~~   ** ...Maximum flow/capacity ratio ( m3/s/W ) = 6.041E-005
   **   ~~~   ** ...Adjusted capacity ( W ) = 6797.431
   ** Warning ** Coil:WaterHeating:AirToWaterHeatPump:Wrapped "HEAT PUMP WATER HEATER EVAPORATOR": Rated air volume flow rate per watt of rated total water heating capacity is out of range
   **   ~~~   ** Min Rated Vol Flow Per Watt=[4.027E-005], Rated Vol Flow Per Watt=[1.510E-004], Max Rated Vol Flow Per Watt=[8.056E-005]. See Input-Output Reference Manual for valid range.
   ************* SizeFan: : Potential issue with equipment sizing for Fan:OnOff HEAT PUMP WATER HEATER FAN
   **   ~~~   ** User-Specified Maximum Flow Rate [m3/s] = 0.22653
   **   ~~~   ** differs from Design Size Maximum Flow Rate [m3/s] = 7.55250E-002
   **   ~~~   ** This may, or may not, indicate mismatched component sizes.
   **   ~~~   ** Verify that the value entered is intended and is consistent with other components.
   ** Warning ** Water heater = WATER HEATER TANK:  Recovery Efficiency and Energy Factor could not be calculated during the test for standard ratings
   **   ~~~   ** Setpoint was never recovered and/or heater never turned on
   ** Warning ** Check input. Pump nominal power or motor efficiency is set to 0, for pump=MAINS PRESSURE
   ** Warning ** Output:Meter: invalid Key Name="ELECTRIC_RANGE:INTERIOREQUIPMENT:ELECTRICITY" - not found.
   ** Warning ** Output:Meter: invalid Key Name="ELECTRIC_DRYER:INTERIOREQUIPMENT:ELECTRICITY" - not found.
   ** Warning ** Output:Meter: invalid Key Name="HEATRECOVERY:ELECTRICITY" - not found.
   ** Warning ** Output:Meter: invalid Key Name="HEATING:NATURALGAS" - not found.
   ** Warning ** Output:Meter: invalid Key Name="WATERSYSTEMS:NATURALGAS" - not found.
   ** Warning ** Output:Meter: invalid Key Name="PROPANE:FACILITY" - not found.
   ** Warning ** Output:Meter: invalid Key Name="HEATING:PROPANE" - not found.
   ************* Testing Individual Branch Integrity
   ************* All Branches passed integrity testing
   ************* Testing Individual Supply Air Path Integrity
   ************* All Supply Air Paths passed integrity testing
   ************* Testing Individual Return Air Path Integrity
   ************* All Return Air Paths passed integrity testing
   ************* No node connection errors were found.
   ************* Beginning Simulation
   ** Warning ** AirflowNetwork::Solver::validate_distribution: Heat pump water heater is simulated along with an AirflowNetwork but is not included in the AirflowNetwork.
   ** Warning ** CalcEquipmentFlowRates: "TOTAL HOT WATER LOAD" - Target water temperature is greater than the hot water temperature by (9.45E-002 C)
   **   ~~~   **  Environment=EXTREME_WINTER, at Simulation time=01/06 06:00 - 06:15
   **   ~~~   ** ...target water temperature     = 53.33 C
   **   ~~~   ** ...hot water temperature        = 53.24 C
   **   ~~~   ** ...Target water temperature should be less than or equal to the hot water temperature. Verify temperature setpoints and schedules.
   ** Warning ** SimHVAC: Maximum iterations (20) exceeded for all HVAC loops, at ANNUAL, 01/24 09:30 - 09:33
   **   ~~~   ** The solution for one or more of the Air Loop HVAC systems did not appear to converge
   **   ~~~   ** Air System Named = CENTRAL SYSTEM did not converge for mass flow rate
   **   ~~~   ** Check values should be zero. Most Recent values listed first.
   **   ~~~   ** Demand-to-Supply interface mass flow rate check value iteration history trace: 8.872528E-002,8.872528E-002,8.872528E-002,8.872528E-002,8.872528E-002,8.872528E-002,8.872528E-002,8.872528E-002,8.872528E-002,8.872528E-002,
   **   ~~~   ** Supply-to-demand interface deck 1 mass flow rate check value iteration history trace: 8.872528E-002,8.872528E-002,8.872528E-002,8.872528E-002,8.872528E-002,8.872528E-002,8.872528E-002,8.872528E-002,8.872528E-002,8.872528E-002,
   **   ~~~   ** Air System Named = CENTRAL SYSTEM did not converge for energy
   **   ~~~   ** Check values should be zero. Most Recent values listed first.
   **   ~~~   ** Demand-to-Supply interface energy check value iteration history trace: 1758.180014,1758.180014,1758.180014,1758.180014,1758.180013,1758.180013,1758.180013,1758.180013,1758.180013,1758.180013,
   **   ~~~   ** Supply-to-demand interface deck 1 energy check value iteration history trace: 2668.922719,2668.922719,2668.922719,2668.922719,2668.922719,2668.922718,2668.922718,2668.922718,2668.922718,2668.922718,
   ** Warning ** SimHVAC: Maximum iterations (20) exceeded for all HVAC loops, at ANNUAL, 02/06 07:45 - 08:00
   **   ~~~   ** The solution for one or more of the Air Loop HVAC systems did not appear to converge
   **   ~~~   ** Air System Named = CENTRAL SYSTEM did not converge for mass flow rate
   **   ~~~   ** Check values should be zero. Most Recent values listed first.
   **   ~~~   ** Demand-to-Supply interface mass flow rate check value iteration history trace: 4.718687E-002,4.718687E-002,4.718687E-002,4.718687E-002,4.718687E-002,4.718687E-002,4.718687E-002,4.718687E-002,4.718687E-002,4.718687E-002,
   **   ~~~   ** Supply-to-demand interface deck 1 mass flow rate check value iteration history trace: 4.718687E-002,4.718687E-002,4.718687E-002,4.718687E-002,4.718687E-002,4.718687E-002,4.718687E-002,4.718687E-002,4.718687E-002,4.718687E-002,
   **   ~~~   ** Air System Named = CENTRAL SYSTEM did not converge for energy
   **   ~~~   ** Check values should be zero. Most Recent values listed first.
   **   ~~~   ** Demand-to-Supply interface energy check value iteration history trace: 935.283570,935.283569,935.283569,935.283569,935.283569,935.283569,935.283569,935.283568,935.283568,935.283568,
   **   ~~~   ** Supply-to-demand interface deck 1 energy check value iteration history trace: 1592.382452,1592.382452,1592.382451,1592.382451,1592.382451,1592.382451,1592.382450,1592.382450,1592.382450,1592.382449,
   ** Warning ** SimHVAC: Maximum iterations (20) exceeded for all HVAC loops, at ANNUAL, 03/30 00:38 - 00:45
   **   ~~~   ** The solution for one or more of the Air Loop HVAC systems did not appear to converge
   **   ~~~   ** Air System Named = CENTRAL SYSTEM did not converge for mass flow rate
   **   ~~~   ** Check values should be zero. Most Recent values listed first.
   **   ~~~   ** Demand-to-Supply interface mass flow rate check value iteration history trace: 5.655484E-002,5.655484E-002,5.655484E-002,5.655484E-002,5.655484E-002,5.655484E-002,5.655484E-002,5.655484E-002,5.655484E-002,5.655484E-002,
   **   ~~~   ** Supply-to-demand interface deck 1 mass flow rate check value iteration history trace: 5.655484E-002,5.655484E-002,5.655484E-002,5.655484E-002,5.655484E-002,5.655484E-002,5.655484E-002,5.655484E-002,5.655484E-002,5.655484E-002,
   **   ~~~   ** Air System Named = CENTRAL SYSTEM did not converge for energy
   **   ~~~   ** Check values should be zero. Most Recent values listed first.
   **   ~~~   ** Demand-to-Supply interface energy check value iteration history trace: 1062.962225,1062.962225,1062.962225,1062.962225,1062.962225,1062.962225,1062.962225,1062.962224,1062.962224,1062.962224,
   **   ~~~   ** Supply-to-demand interface deck 1 energy check value iteration history trace: 1873.824604,1873.824604,1873.824604,1873.824604,1873.824604,1873.824604,1873.824604,1873.824604,1873.824604,1873.824604,
   ** Warning ** SimHVAC: Maximum iterations (20) exceeded for all HVAC loops, at ANNUAL, 04/15 10:27 - 10:30
   **   ~~~   ** The solution for one or more of the Air Loop HVAC systems did not appear to converge
   **   ~~~   ** Air System Named = CENTRAL SYSTEM did not converge for mass flow rate
   **   ~~~   ** Check values should be zero. Most Recent values listed first.
   **   ~~~   ** Demand-to-Supply interface mass flow rate check value iteration history trace: 0.164586,0.164586,0.164586,0.164586,0.164586,0.164586,0.164586,0.164586,0.164586,0.164586,
   **   ~~~   ** Supply-to-demand interface deck 1 mass flow rate check value iteration history trace: 0.164586,0.164586,0.164586,0.164586,0.164586,0.164586,0.164586,0.164586,0.164586,0.164586,
   **   ~~~   ** Air System Named = CENTRAL SYSTEM did not converge for energy
   **   ~~~   ** Check values should be zero. Most Recent values listed first.
   **   ~~~   ** Demand-to-Supply interface energy check value iteration history trace: 3894.887486,3894.887486,3894.887487,3894.887487,3894.887487,3894.887487,3894.887487,3894.887488,3894.887488,3894.887488,
   **   ~~~   ** Supply-to-demand interface deck 1 energy check value iteration history trace: 2158.202240,2158.202240,2158.202240,2158.202240,2158.202240,2158.202240,2158.202241,2158.202241,2158.202241,2158.202241,
   ** Warning ** SimHVAC: Maximum iterations (20) exceeded for all HVAC loops, at ANNUAL, 04/16 11:15 - 11:30
   **   ~~~   ** The solution for one or more of the Air Loop HVAC systems did not appear to converge
   **   ~~~   ** Air System Named = CENTRAL SYSTEM did not converge for mass flow rate
   **   ~~~   ** Check values should be zero. Most Recent values listed first.
   **   ~~~   ** Demand-to-Supply interface mass flow rate check value iteration history trace: 6.284388E-002,6.284388E-002,6.284388E-002,6.284388E-002,6.284388E-002,6.284388E-002,6.284388E-002,6.284388E-002,6.284388E-002,6.284388E-002,
   **   ~~~   ** Supply-to-demand interface deck 1 mass flow rate check value iteration history trace: 6.284388E-002,6.284388E-002,6.284388E-002,6.284388E-002,6.284388E-002,6.284388E-002,6.284388E-002,6.284388E-002,6.284388E-002,6.284388E-002,
   **   ~~~   ** Air System Named = CENTRAL SYSTEM did not converge for energy
   **   ~~~   ** Check values should be zero. Most Recent values listed first.
   **   ~~~   ** Demand-to-Supply interface energy check value iteration history trace: 1230.457255,1230.457255,1230.457255,1230.457255,1230.457255,1230.457255,1230.457255,1230.457255,1230.457255,1230.457255,
   **   ~~~   ** Supply-to-demand interface deck 1 energy check value iteration history trace: 2166.556254,2166.556254,2166.556254,2166.556254,2166.556254,2166.556254,2166.556254,2166.556254,2166.556253,2166.556253,
   ** Warning ** SimHVAC: Maximum iterations (20) exceeded for all HVAC loops, at ANNUAL, 11/09 07:00 - 07:15
   **   ~~~   ** The solution for one or more of the Air Loop HVAC systems did not appear to converge
   **   ~~~   ** Air System Named = CENTRAL SYSTEM did not converge for mass flow rate
   **   ~~~   ** Check values should be zero. Most Recent values listed first.
   **   ~~~   ** Demand-to-Supply interface mass flow rate check value iteration history trace: 6.766852E-002,6.766852E-002,6.766852E-002,6.766852E-002,6.766852E-002,6.766852E-002,6.766852E-002,6.766852E-002,6.766852E-002,6.766852E-002,
   **   ~~~   ** Supply-to-demand interface deck 1 mass flow rate check value iteration history trace: 6.766852E-002,6.766852E-002,6.766852E-002,6.766852E-002,6.766852E-002,6.766852E-002,6.766852E-002,6.766852E-002,6.766852E-002,6.766852E-002,
   **   ~~~   ** Air System Named = CENTRAL SYSTEM did not converge for energy
   **   ~~~   ** Check values should be zero. Most Recent values listed first.
   **   ~~~   ** Demand-to-Supply interface energy check value iteration history trace: 1340.404824,1340.404823,1340.404823,1340.404823,1340.404823,1340.404823,1340.404823,1340.404823,1340.404823,1340.404823,
   **   ~~~   ** Supply-to-demand interface deck 1 energy check value iteration history trace: 2326.580420,2326.580420,2326.580420,2326.580420,2326.580420,2326.580420,2326.580420,2326.580420,2326.580419,2326.580419,
   ** Warning ** SimHVAC: Maximum iterations (20) exceeded for all HVAC loops, at ANNUAL, 11/15 13:15 - 13:30
   **   ~~~   ** The solution for one or more of the Air Loop HVAC systems did not appear to converge
   **   ~~~   ** Air System Named = CENTRAL SYSTEM did not converge for mass flow rate
   **   ~~~   ** Check values should be zero. Most Recent values listed first.
   **   ~~~   ** Demand-to-Supply interface mass flow rate check value iteration history trace: 0.124814,0.124814,0.124814,0.124814,0.124814,0.124814,0.124814,0.124814,0.124814,0.124814,
   **   ~~~   ** Supply-to-demand interface deck 1 mass flow rate check value iteration history trace: 0.124814,0.124814,0.124814,0.124814,0.124814,0.124814,0.124814,0.124814,0.124814,0.124814,
   **   ~~~   ** Air System Named = CENTRAL SYSTEM did not converge for energy
   **   ~~~   ** Check values should be zero. Most Recent values listed first.
   **   ~~~   ** Demand-to-Supply interface energy check value iteration history trace: 2983.659830,2983.659830,2983.659830,2983.659830,2983.659830,2983.659830,2983.659831,2983.659831,2983.659831,2983.659831,
   **   ~~~   ** Supply-to-demand interface deck 1 energy check value iteration history trace: 1186.242083,1186.242083,1186.242083,1186.242083,1186.242083,1186.242083,1186.242083,1186.242083,1186.242083,1186.242083,
   ** Warning ** SimHVAC: Maximum iterations (20) exceeded for all HVAC loops, at ANNUAL, 11/19 10:11 - 10:15
   **   ~~~   ** The solution for one or more of the Air Loop HVAC systems did not appear to converge
   **   ~~~   ** Air System Named = CENTRAL SYSTEM did not converge for mass flow rate
   **   ~~~   ** Check values should be zero. Most Recent values listed first.
   **   ~~~   ** Demand-to-Supply interface mass flow rate check value iteration history trace: 3.073707E-002,3.073707E-002,3.073707E-002,3.073707E-002,3.073707E-002,3.073707E-002,3.073707E-002,3.073707E-002,3.073707E-002,3.073707E-002,
   **   ~~~   ** Supply-to-demand interface deck 1 mass flow rate check value iteration history trace: 3.073707E-002,3.073707E-002,3.073707E-002,3.073707E-002,3.073707E-002,3.073707E-002,3.073707E-002,3.073707E-002,3.073707E-002,3.073707E-002,
   **   ~~~   ** Air System Named = CENTRAL SYSTEM did not converge for energy
   **   ~~~   ** Check values should be zero. Most Recent values listed first.
   **   ~~~   ** Demand-to-Supply interface energy check value iteration history trace: 720.374106,720.374106,720.374106,720.374106,720.374106,720.374106,720.374106,720.374106,720.374106,720.374106,
   **   ~~~   ** Supply-to-demand interface deck 1 energy check value iteration history trace: 404.118822,404.118822,404.118822,404.118822,404.118822,404.118822,404.118822,404.118822,404.118822,404.118822,
   ** Warning ** SimHVAC: Maximum iterations (20) exceeded for all HVAC loops, at ANNUAL, 11/24 14:45 - 15:00
   **   ~~~   ** The solution for one or more of the Air Loop HVAC systems did not appear to converge
   **   ~~~   ** Air System Named = CENTRAL SYSTEM did not converge for mass flow rate
   **   ~~~   ** Check values should be zero. Most Recent values listed first.
   **   ~~~   ** Demand-to-Supply interface mass flow rate check value iteration history trace: 6.771065E-002,6.771065E-002,6.771065E-002,6.771065E-002,6.771065E-002,6.771065E-002,6.771065E-002,6.771065E-002,6.771065E-002,6.771065E-002,
   **   ~~~   ** Supply-to-demand interface deck 1 mass flow rate check value iteration history trace: 6.771065E-002,6.771065E-002,6.771065E-002,6.771065E-002,6.771065E-002,6.771065E-002,6.771065E-002,6.771065E-002,6.771065E-002,6.771065E-002,
   **   ~~~   ** Air System Named = CENTRAL SYSTEM did not converge for energy
   **   ~~~   ** Check values should be zero. Most Recent values listed first.
   **   ~~~   ** Demand-to-Supply interface energy check value iteration history trace: 1333.347096,1333.347096,1333.347096,1333.347096,1333.347096,1333.347096,1333.347096,1333.347096,1333.347096,1333.347096,
   **   ~~~   ** Supply-to-demand interface deck 1 energy check value iteration history trace: 2253.730024,2253.730024,2253.730024,2253.730024,2253.730023,2253.730023,2253.730023,2253.730023,2253.730023,2253.730023,
   ** Warning ** SimHVAC: Maximum iterations (20) exceeded for all HVAC loops, at ANNUAL, 11/28 09:00 - 09:15
   **   ~~~   ** The solution for one or more of the Air Loop HVAC systems did not appear to converge
   **   ~~~   ** Air System Named = CENTRAL SYSTEM did not converge for mass flow rate
   **   ~~~   ** Check values should be zero. Most Recent values listed first.
   **   ~~~   ** Demand-to-Supply interface mass flow rate check value iteration history trace: 6.632869E-002,6.632869E-002,6.632869E-002,6.632869E-002,6.632869E-002,6.632869E-002,6.632869E-002,6.632869E-002,6.632869E-002,6.632869E-002,
   **   ~~~   ** Supply-to-demand interface deck 1 mass flow rate check value iteration history trace: 6.632869E-002,6.632869E-002,6.632869E-002,6.632869E-002,6.632869E-002,6.632869E-002,6.632869E-002,6.632869E-002,6.632869E-002,6.632869E-002,
   **   ~~~   ** Air System Named = CENTRAL SYSTEM did not converge for energy
   **   ~~~   ** Check values should be zero. Most Recent values listed first.
   **   ~~~   ** Demand-to-Supply interface energy check value iteration history trace: 1307.680209,1307.680209,1307.680209,1307.680209,1307.680208,1307.680208,1307.680208,1307.680208,1307.680208,1307.680208,
   **   ~~~   ** Supply-to-demand interface deck 1 energy check value iteration history trace: 2269.348434,2269.348433,2269.348433,2269.348433,2269.348433,2269.348433,2269.348433,2269.348433,2269.348433,2269.348433,
   ** Warning ** SimHVAC: Maximum iterations (20) exceeded for all HVAC loops, at ANNUAL, 12/03 08:15 - 08:30
   **   ~~~   ** The solution for one or more of the Air Loop HVAC systems did not appear to converge
   **   ~~~   ** Air System Named = CENTRAL SYSTEM did not converge for mass flow rate
   **   ~~~   ** Check values should be zero. Most Recent values listed first.
   **   ~~~   ** Demand-to-Supply interface mass flow rate check value iteration history trace: 5.940294E-002,5.940294E-002,5.940294E-002,5.940294E-002,5.940294E-002,5.940294E-002,5.940294E-002,5.940294E-002,5.940294E-002,5.940294E-002,
   **   ~~~   ** Supply-to-demand interface deck 1 mass flow rate check value iteration history trace: 5.940294E-002,5.940294E-002,5.940294E-002,5.940294E-002,5.940294E-002,5.940294E-002,5.940294E-002,5.940294E-002,5.940294E-002,5.940294E-002,
   **   ~~~   ** Air System Named = CENTRAL SYSTEM did not converge for energy
   **   ~~~   ** Check values should be zero. Most Recent values listed first.
   **   ~~~   ** Demand-to-Supply interface energy check value iteration history trace: 1176.401162,1176.401162,1176.401162,1176.401162,1176.401161,1176.401161,1176.401161,1176.401161,1176.401161,1176.401161,
   **   ~~~   ** Supply-to-demand interface deck 1 energy check value iteration history trace: 2054.695037,2054.695037,2054.695037,2054.695037,2054.695037,2054.695037,2054.695037,2054.695037,2054.695036,2054.695036,
   ** Warning ** SimHVAC: Maximum iterations (20) exceeded for all HVAC loops, at ANNUAL, 12/21 07:23 - 07:30
   **   ~~~   ** The solution for one or more of the Air Loop HVAC systems did not appear to converge
   **   ~~~   ** Air System Named = CENTRAL SYSTEM did not converge for mass flow rate
   **   ~~~   ** Check values should be zero. Most Recent values listed first.
   **   ~~~   ** Demand-to-Supply interface mass flow rate check value iteration history trace: 6.529199E-002,6.529199E-002,6.529199E-002,6.529199E-002,6.529199E-002,6.529199E-002,6.529199E-002,6.529199E-002,6.529199E-002,6.529199E-002,
   **   ~~~   ** Supply-to-demand interface deck 1 mass flow rate check value iteration history trace: 6.529199E-002,6.529199E-002,6.529199E-002,6.529199E-002,6.529199E-002,6.529199E-002,6.529199E-002,6.529199E-002,6.529199E-002,6.529199E-002,
   **   ~~~   ** Air System Named = CENTRAL SYSTEM did not converge for energy
   **   ~~~   ** Check values should be zero. Most Recent values listed first.
   **   ~~~   ** Demand-to-Supply interface energy check value iteration history trace: 1293.468838,1293.468838,1293.468838,1293.468838,1293.468838,1293.468838,1293.468837,1293.468837,1293.468837,1293.468837,
   **   ~~~   ** Supply-to-demand interface deck 1 energy check value iteration history trace: 2186.282984,2186.282983,2186.282983,2186.282983,2186.282983,2186.282983,2186.282983,2186.282983,2186.282983,2186.282983,
   ** Warning ** SimHVAC: Maximum iterations (20) exceeded for all HVAC loops, at ANNUAL, 12/21 08:30 - 08:45
   **   ~~~   ** The solution for one or more of the Air Loop HVAC systems did not appear to converge
   **   ~~~   ** Air System Named = CENTRAL SYSTEM did not converge for mass flow rate
   **   ~~~   ** Check values should be zero. Most Recent values listed first.
   **   ~~~   ** Demand-to-Supply interface mass flow rate check value iteration history trace: 3.120804E-002,3.120804E-002,3.120804E-002,3.120804E-002,3.120804E-002,3.120804E-002,3.120804E-002,3.120804E-002,3.120804E-002,3.120804E-002,
   **   ~~~   ** Supply-to-demand interface deck 1 mass flow rate check value iteration history trace: 3.120804E-002,3.120804E-002,3.120804E-002,3.120804E-002,3.120804E-002,3.120804E-002,3.120804E-002,3.120804E-002,3.120804E-002,3.120804E-002,
   **   ~~~   ** Air System Named = CENTRAL SYSTEM did not converge for energy
   **   ~~~   ** Check values should be zero. Most Recent values listed first.
   **   ~~~   ** Demand-to-Supply interface energy check value iteration history trace: 612.170778,612.170778,612.170778,612.170778,612.170777,612.170777,612.170777,612.170777,612.170777,612.170777,
   **   ~~~   ** Supply-to-demand interface deck 1 energy check value iteration history trace: 1044.527042,1044.527042,1044.527042,1044.527042,1044.527042,1044.527042,1044.527042,1044.527042,1044.527042,1044.527042,
   ************* Simulation Error Summary *************
   ** Warning ** The following Report Variables were requested but not generated -- check.rdd file
   **   ~~~   ** Either the IDF did not contain these elements, the variable name is misspelled,
   **   ~~~   ** or the requested variable is an advanced output which requires Output : Diagnostics, DisplayAdvancedReportVariables;
   ************* Key=*, VarName=BASEBOARD TOTAL HEATING ENERGY, Frequency=
   ************* Key=*, VarName=WATER HEATER NATURALGAS ENERGY, Frequency=
   ************* Key=*, VarName=COOLING COIL TOTAL HEATING ENERGY, Frequency=
   ************* There are 34 unused schedules in input.
   ************* There are 388 unused week schedules in input.
   ************* There are 396 unused day schedules in input.
   ************* Use Output:Diagnostics,DisplayUnusedSchedules; to see them.
   *************
   ************* ===== Recurring Error Summary =====
   ************* The following recurring error messages occurred.
   *************
   *************  ** Warning ** "TOTAL HOT WATER LOAD" - Target water temperature should be less than or equal to the hot water temperature error continues...
   *************  **   ~~~   **   This error occurred 130737 total times;
   *************  **   ~~~   **   during Warmup 0 times;
   *************  **   ~~~   **   during Sizing 0 times.
   *************  **   ~~~   **   Max=9.171495  Min=6.658521E-004
   *************
   *************
   ************* ===== Final Error Summary =====
   ************* The following error categories occurred.  Consider correcting or noting.
   ************* Nominally Unused Constructions
   ************* ..The nominally unused constructions warning is provided to alert you to potential conditions that can cause
   ************* ..extra time during simulation. Each construction is calculated by the algorithm indicated in the HeatBalanceAlgorithm
   ************* ..object. You may remove the constructions indicated (when you use the DisplayExtraWarnings option).
   *************
   ************* EnergyPlus Warmup Error Summary. During Warmup: 1 Warning; 0 Severe Errors.
   ************* EnergyPlus Sizing Error Summary. During Sizing: 4 Warning; 0 Severe Errors.
   ************* EnergyPlus Completed Successfully-- 130768 Warning; 0 Severe Errors; Elapsed Time=00hr 06min  2.26sec
