Program Version,EnergyPlus, Version 22.2.0-c249759bad, YMD=2023.09.01 20:04,
   ************* Beginning Zone Sizing Calculations
   ** Warning ** ProcessScheduleInput: Schedule:Constant="ALWAYS ON DISCRETE", Schedule Type Limits Name="ONOFF" not found -- will not be validated
   ** Warning ** Foundation:Kiva="KIVA FOUNDATION", no Interior Horizontal Insulation Material Name defined
   **   ~~~   ** Interior Horizontal Insulation Depth will not be used.
   ** Warning ** CheckUsedConstructions: There are 15 nominally unused constructions in input.
   **   ~~~   ** Each Unused construction is shown.
   ************* Construction=INTERIOR FLOOR
   ************* Construction=INTERIOR WINDOW
   ************* Construction=EXTERIOR DOOR
   ************* Construction=INTERIOR DOOR
   ************* Construction=GABLE CONSTRUCTION
   ************* Construction=CRAWL_FLOOR
   ************* Construction=INSULATED PIPE
   ************* Construction=PLAIN PIPE
   ************* Construction=TDD PIPE
   ************* Construction=TDD DOME
   ************* Construction=TDD DIFFUSER
   ************* Construction=CRAWL WALL
   ************* Construction=CEILING-FLOOR-LAYER
   ************* Construction=SLAB CONSTRUCTION W FULL R10 INSULATION
   ************* Construction=SLAB CONSTRUCTION W FULL R5 INSULATION
   ** Warning ** GetDXCoils: Coil:Heating:DX:SingleSpeed="DX_HEATING_COIL" curve values
   **   ~~~   ** ... Defrost Energy Input Ratio Function of Temperature Curve Name = DEFROSTEIR output is not equal to 1.0 (+ or - 10%) at rated conditions.
   **   ~~~   ** ... Curve output at rated conditions = 0.152
   ************* Beginning System Sizing Calculations
   ************* Beginning Plant Sizing Calculations
   ** Warning ** SizeDXCoil Coil:Cooling:DX:SingleSpeed DX_COOLING_COIL
   **   ~~~   ** ...Gross Rated Total Cooling Capacity [W] will be limited by the maximum rated volume flow per rated total capacity ratio.
   **   ~~~   ** ...DX coil volume flow rate ( m3/s ) = 0.456542
   **   ~~~   ** ...Requested capacity ( W ) = 7226.463
   **   ~~~   ** ...Requested flow/capacity ratio ( m3/s/W ) = 6.317E-005
   **   ~~~   ** ...Maximum flow/capacity ratio ( m3/s/W ) = 6.041E-005
   **   ~~~   ** ...Adjusted capacity ( W ) = 7557.401
   ** Warning ** Coil:WaterHeating:AirToWaterHeatPump:Wrapped "HEAT PUMP WATER HEATER EVAPORATOR": Rated air volume flow rate per watt of rated total water heating capacity is out of range
   **   ~~~   ** Min Rated Vol Flow Per Watt=[4.027E-005], Rated Vol Flow Per Watt=[1.510E-004], Max Rated Vol Flow Per Watt=[8.056E-005]. See Input-Output Reference Manual for valid range.
   ************* SizeFan: : Potential issue with equipment sizing for Fan:OnOff HEAT PUMP WATER HEATER FAN
   **   ~~~   ** User-Specified Maximum Flow Rate [m3/s] = 0.22653
   **   ~~~   ** differs from Design Size Maximum Flow Rate [m3/s] = 7.55250E-002
   **   ~~~   ** This may, or may not, indicate mismatched component sizes.
   **   ~~~   ** Verify that the value entered is intended and is consistent with other components.
   ** Warning ** Water heater = WATER HEATER TANK:  Recovery Efficiency and Energy Factor could not be calculated during the test for standard ratings
   **   ~~~   ** Setpoint was never recovered and/or heater never turned on
   ** Warning ** Check input. Pump nominal power or motor efficiency is set to 0, for pump=MAINS PRESSURE
   ** Warning ** Output:Meter: invalid Key Name="ELECTRIC_RANGE:INTERIOREQUIPMENT:ELECTRICITY" - not found.
   ** Warning ** Output:Meter: invalid Key Name="ELECTRIC_DRYER:INTERIOREQUIPMENT:ELECTRICITY" - not found.
   ** Warning ** Output:Meter: invalid Key Name="HEATRECOVERY:ELECTRICITY" - not found.
   ** Warning ** Output:Meter: invalid Key Name="HEATING:NATURALGAS" - not found.
   ** Warning ** Output:Meter: invalid Key Name="WATERSYSTEMS:NATURALGAS" - not found.
   ** Warning ** Output:Meter: invalid Key Name="PROPANE:FACILITY" - not found.
   ** Warning ** Output:Meter: invalid Key Name="HEATING:PROPANE" - not found.
   ************* Testing Individual Branch Integrity
   ************* All Branches passed integrity testing
   ************* Testing Individual Supply Air Path Integrity
   ************* All Supply Air Paths passed integrity testing
   ************* Testing Individual Return Air Path Integrity
   ************* All Return Air Paths passed integrity testing
   ************* No node connection errors were found.
   ************* Beginning Simulation
   ** Warning ** AirflowNetwork::Solver::validate_distribution: Heat pump water heater is simulated along with an AirflowNetwork but is not included in the AirflowNetwork.
   ** Warning ** CalcEquipmentFlowRates: "TOTAL HOT WATER LOAD" - Target water temperature is greater than the hot water temperature by (3.95 C)
   **   ~~~   **  Environment=EXTREME_WINTER, at Simulation time=02/05 07:00 - 07:15
   **   ~~~   ** ...target water temperature     = 53.33 C
   **   ~~~   ** ...hot water temperature        = 49.39 C
   **   ~~~   ** ...Target water temperature should be less than or equal to the hot water temperature. Verify temperature setpoints and schedules.
   ** Warning ** SimHVAC: Maximum iterations (20) exceeded for all HVAC loops, at EXTREME_SUMMER, 07/26 02:38 - 02:45
   **   ~~~   ** The solution for one or more of the Air Loop HVAC systems did not appear to converge
   **   ~~~   ** Air System Named = CENTRAL SYSTEM did not converge for mass flow rate
   **   ~~~   ** Check values should be zero. Most Recent values listed first.
   **   ~~~   ** Demand-to-Supply interface mass flow rate check value iteration history trace: 5.936446E-002,5.936446E-002,5.936446E-002,5.936446E-002,5.936446E-002,5.936446E-002,5.936446E-002,5.936446E-002,5.936446E-002,5.936446E-002,
   **   ~~~   ** Supply-to-demand interface deck 1 mass flow rate check value iteration history trace: 5.936446E-002,5.936446E-002,5.936446E-002,5.936446E-002,5.936446E-002,5.936446E-002,5.936446E-002,5.936446E-002,5.936446E-002,5.936446E-002,
   **   ~~~   ** Air System Named = CENTRAL SYSTEM did not converge for energy
   **   ~~~   ** Check values should be zero. Most Recent values listed first.
   **   ~~~   ** Demand-to-Supply interface energy check value iteration history trace: 1472.622089,1472.622090,1472.622090,1472.622091,1472.622091,1472.622092,1472.622092,1472.622093,1472.622093,1472.622094,
   **   ~~~   ** Supply-to-demand interface deck 1 energy check value iteration history trace: 806.526811,806.526812,806.526812,806.526812,806.526813,806.526813,806.526813,806.526813,806.526814,806.526814,
   ** Warning ** SimHVAC: Maximum iterations (20) exceeded for all HVAC loops, at ANNUAL, 02/28 15:17 - 15:20
   **   ~~~   ** The solution for one or more of the Air Loop HVAC systems did not appear to converge
   **   ~~~   ** Air System Named = CENTRAL SYSTEM did not converge for mass flow rate
   **   ~~~   ** Check values should be zero. Most Recent values listed first.
   **   ~~~   ** Demand-to-Supply interface mass flow rate check value iteration history trace: 7.981935E-002,7.981935E-002,7.981935E-002,7.981935E-002,7.981935E-002,7.981935E-002,7.981935E-002,7.981935E-002,7.981935E-002,7.981935E-002,
   **   ~~~   ** Supply-to-demand interface deck 1 mass flow rate check value iteration history trace: 7.981935E-002,7.981935E-002,7.981935E-002,7.981935E-002,7.981935E-002,7.981935E-002,7.981935E-002,7.981935E-002,7.981935E-002,7.981935E-002,
   **   ~~~   ** Air System Named = CENTRAL SYSTEM did not converge for energy
   **   ~~~   ** Check values should be zero. Most Recent values listed first.
   **   ~~~   ** Demand-to-Supply interface energy check value iteration history trace: 1574.281419,1574.281419,1574.281419,1574.281419,1574.281418,1574.281418,1574.281418,1574.281418,1574.281418,1574.281418,
   **   ~~~   ** Supply-to-demand interface deck 1 energy check value iteration history trace: 2305.725737,2305.725736,2305.725736,2305.725736,2305.725736,2305.725736,2305.725735,2305.725735,2305.725735,2305.725735,
   ** Warning ** SimHVAC: Maximum iterations (20) exceeded for all HVAC loops, at ANNUAL, 02/28 15:58 - 16:00
   **   ~~~   ** The solution for one or more of the Air Loop HVAC systems did not appear to converge
   **   ~~~   ** Air System Named = CENTRAL SYSTEM did not converge for mass flow rate
   **   ~~~   ** Check values should be zero. Most Recent values listed first.
   **   ~~~   ** Demand-to-Supply interface mass flow rate check value iteration history trace: 7.380790E-002,7.380790E-002,7.380790E-002,7.380790E-002,7.380790E-002,7.380790E-002,7.380790E-002,7.380790E-002,7.380790E-002,7.380790E-002,
   **   ~~~   ** Supply-to-demand interface deck 1 mass flow rate check value iteration history trace: 7.380790E-002,7.380790E-002,7.380790E-002,7.380790E-002,7.380790E-002,7.380790E-002,7.380790E-002,7.380790E-002,7.380790E-002,7.380790E-002,
   **   ~~~   ** Air System Named = CENTRAL SYSTEM did not converge for energy
   **   ~~~   ** Check values should be zero. Most Recent values listed first.
   **   ~~~   ** Demand-to-Supply interface energy check value iteration history trace: 1460.319358,1460.319358,1460.319358,1460.319358,1460.319358,1460.319357,1460.319357,1460.319357,1460.319357,1460.319357,
   **   ~~~   ** Supply-to-demand interface deck 1 energy check value iteration history trace: 2136.448399,2136.448399,2136.448399,2136.448399,2136.448399,2136.448398,2136.448398,2136.448398,2136.448398,2136.448398,
   ** Warning ** SimHVAC: Maximum iterations (20) exceeded for all HVAC loops, at ANNUAL, 03/08 17:45 - 18:00
   **   ~~~   ** The solution for one or more of the Air Loop HVAC systems did not appear to converge
   **   ~~~   ** Air System Named = CENTRAL SYSTEM did not converge for mass flow rate
   **   ~~~   ** Check values should be zero. Most Recent values listed first.
   **   ~~~   ** Demand-to-Supply interface mass flow rate check value iteration history trace: 8.435782E-002,8.435782E-002,8.435782E-002,8.435782E-002,8.435782E-002,8.435782E-002,8.435782E-002,8.435782E-002,8.435782E-002,8.435782E-002,
   **   ~~~   ** Supply-to-demand interface deck 1 mass flow rate check value iteration history trace: 8.435782E-002,8.435782E-002,8.435782E-002,8.435782E-002,8.435782E-002,8.435782E-002,8.435782E-002,8.435782E-002,8.435782E-002,8.435782E-002,
   **   ~~~   ** Air System Named = CENTRAL SYSTEM did not converge for energy
   **   ~~~   ** Check values should be zero. Most Recent values listed first.
   **   ~~~   ** Demand-to-Supply interface energy check value iteration history trace: 1666.585837,1666.585837,1666.585837,1666.585837,1666.585837,1666.585837,1666.585836,1666.585836,1666.585836,1666.585836,
   **   ~~~   ** Supply-to-demand interface deck 1 energy check value iteration history trace: 2572.479159,2572.479159,2572.479159,2572.479159,2572.479159,2572.479159,2572.479159,2572.479158,2572.479158,2572.479158,
   ** Warning ** SimHVAC: Maximum iterations (20) exceeded for all HVAC loops, at ANNUAL, 03/14 11:00 - 11:15
   **   ~~~   ** The solution for one or more of the Air Loop HVAC systems did not appear to converge
   **   ~~~   ** Air System Named = CENTRAL SYSTEM did not converge for mass flow rate
   **   ~~~   ** Check values should be zero. Most Recent values listed first.
   **   ~~~   ** Demand-to-Supply interface mass flow rate check value iteration history trace: 8.362994E-002,8.362994E-002,8.362994E-002,8.362994E-002,8.362994E-002,8.362994E-002,8.362994E-002,8.362994E-002,8.362994E-002,8.362994E-002,
   **   ~~~   ** Supply-to-demand interface deck 1 mass flow rate check value iteration history trace: 8.362994E-002,8.362994E-002,8.362994E-002,8.362994E-002,8.362994E-002,8.362994E-002,8.362994E-002,8.362994E-002,8.362994E-002,8.362994E-002,
   **   ~~~   ** Air System Named = CENTRAL SYSTEM did not converge for energy
   **   ~~~   ** Check values should be zero. Most Recent values listed first.
   **   ~~~   ** Demand-to-Supply interface energy check value iteration history trace: 1646.028303,1646.028303,1646.028303,1646.028303,1646.028302,1646.028302,1646.028302,1646.028302,1646.028302,1646.028302,
   **   ~~~   ** Supply-to-demand interface deck 1 energy check value iteration history trace: 2815.742771,2815.742771,2815.742771,2815.742771,2815.742771,2815.742771,2815.742771,2815.742770,2815.742770,2815.742770,
   ** Warning ** SimHVAC: Maximum iterations (20) exceeded for all HVAC loops, at ANNUAL, 04/01 23:15 - 23:30
   **   ~~~   ** The solution for one or more of the Air Loop HVAC systems did not appear to converge
   **   ~~~   ** Air System Named = CENTRAL SYSTEM did not converge for mass flow rate
   **   ~~~   ** Check values should be zero. Most Recent values listed first.
   **   ~~~   ** Demand-to-Supply interface mass flow rate check value iteration history trace: 5.513344E-002,5.513344E-002,5.513344E-002,5.513344E-002,5.513344E-002,5.513344E-002,5.513344E-002,5.513344E-002,5.513344E-002,5.513344E-002,
   **   ~~~   ** Supply-to-demand interface deck 1 mass flow rate check value iteration history trace: 5.513344E-002,5.513344E-002,5.513344E-002,5.513344E-002,5.513344E-002,5.513344E-002,5.513344E-002,5.513344E-002,5.513344E-002,5.513344E-002,
   **   ~~~   ** Air System Named = CENTRAL SYSTEM did not converge for energy
   **   ~~~   ** Check values should be zero. Most Recent values listed first.
   **   ~~~   ** Demand-to-Supply interface energy check value iteration history trace: 1029.543011,1029.543011,1029.543011,1029.543011,1029.543011,1029.543011,1029.543011,1029.543011,1029.543011,1029.543011,
   **   ~~~   ** Supply-to-demand interface deck 1 energy check value iteration history trace: 1846.200013,1846.200013,1846.200013,1846.200013,1846.200013,1846.200013,1846.200013,1846.200013,1846.200013,1846.200013,
   ** Warning ** SimHVAC: Maximum iterations (20) exceeded for all HVAC loops, at ANNUAL, 04/02 11:12 - 11:15
   **   ~~~   ** The solution for one or more of the Air Loop HVAC systems did not appear to converge
   **   ~~~   ** Air System Named = CENTRAL SYSTEM did not converge for mass flow rate
   **   ~~~   ** Check values should be zero. Most Recent values listed first.
   **   ~~~   ** Demand-to-Supply interface mass flow rate check value iteration history trace: 6.461242E-002,6.461242E-002,6.461242E-002,6.461242E-002,6.461242E-002,6.461242E-002,6.461242E-002,6.461242E-002,6.461242E-002,6.461242E-002,
   **   ~~~   ** Supply-to-demand interface deck 1 mass flow rate check value iteration history trace: 6.461242E-002,6.461242E-002,6.461242E-002,6.461242E-002,6.461242E-002,6.461242E-002,6.461242E-002,6.461242E-002,6.461242E-002,6.461242E-002,
   **   ~~~   ** Air System Named = CENTRAL SYSTEM did not converge for energy
   **   ~~~   ** Check values should be zero. Most Recent values listed first.
   **   ~~~   ** Demand-to-Supply interface energy check value iteration history trace: 1276.069660,1276.069660,1276.069660,1276.069660,1276.069660,1276.069660,1276.069660,1276.069659,1276.069659,1276.069659,
   **   ~~~   ** Supply-to-demand interface deck 1 energy check value iteration history trace: 2238.751661,2238.751661,2238.751661,2238.751660,2238.751660,2238.751660,2238.751660,2238.751660,2238.751660,2238.751660,
   ** Warning ** SimHVAC: Maximum iterations (20) exceeded for all HVAC loops, at ANNUAL, 04/03 07:30 - 07:38
   **   ~~~   ** The solution for one or more of the Air Loop HVAC systems did not appear to converge
   **   ~~~   ** Air System Named = CENTRAL SYSTEM did not converge for mass flow rate
   **   ~~~   ** Check values should be zero. Most Recent values listed first.
   **   ~~~   ** Demand-to-Supply interface mass flow rate check value iteration history trace: 6.500244E-002,6.500244E-002,6.500244E-002,6.500244E-002,6.500244E-002,6.500244E-002,6.500244E-002,6.500244E-002,6.500244E-002,6.500244E-002,
   **   ~~~   ** Supply-to-demand interface deck 1 mass flow rate check value iteration history trace: 6.500244E-002,6.500244E-002,6.500244E-002,6.500244E-002,6.500244E-002,6.500244E-002,6.500244E-002,6.500244E-002,6.500244E-002,6.500244E-002,
   **   ~~~   ** Air System Named = CENTRAL SYSTEM did not converge for energy
   **   ~~~   ** Check values should be zero. Most Recent values listed first.
   **   ~~~   ** Demand-to-Supply interface energy check value iteration history trace: 1288.094320,1288.094320,1288.094320,1288.094320,1288.094320,1288.094320,1288.094320,1288.094319,1288.094319,1288.094319,
   **   ~~~   ** Supply-to-demand interface deck 1 energy check value iteration history trace: 2280.417230,2280.417230,2280.417230,2280.417230,2280.417229,2280.417229,2280.417229,2280.417229,2280.417229,2280.417229,
   ** Warning ** SimHVAC: Maximum iterations (20) exceeded for all HVAC loops, at ANNUAL, 04/07 09:38 - 09:41
   **   ~~~   ** The solution for one or more of the Air Loop HVAC systems did not appear to converge
   **   ~~~   ** Air System Named = CENTRAL SYSTEM did not converge for mass flow rate
   **   ~~~   ** Check values should be zero. Most Recent values listed first.
   **   ~~~   ** Demand-to-Supply interface mass flow rate check value iteration history trace: 7.804493E-002,7.804493E-002,7.804493E-002,7.804493E-002,7.804493E-002,7.804493E-002,7.804493E-002,7.804493E-002,7.804493E-002,7.804493E-002,
   **   ~~~   ** Supply-to-demand interface deck 1 mass flow rate check value iteration history trace: 7.804493E-002,7.804493E-002,7.804493E-002,7.804493E-002,7.804493E-002,7.804493E-002,7.804493E-002,7.804493E-002,7.804493E-002,7.804493E-002,
   **   ~~~   ** Air System Named = CENTRAL SYSTEM did not converge for energy
   **   ~~~   ** Check values should be zero. Most Recent values listed first.
   **   ~~~   ** Demand-to-Supply interface energy check value iteration history trace: 1537.564542,1537.564542,1537.564542,1537.564541,1537.564541,1537.564541,1537.564541,1537.564541,1537.564541,1537.564541,
   **   ~~~   ** Supply-to-demand interface deck 1 energy check value iteration history trace: 2682.251178,2682.251178,2682.251178,2682.251178,2682.251178,2682.251178,2682.251177,2682.251177,2682.251177,2682.251177,
   ** Warning ** SimHVAC: Maximum iterations (20) exceeded for all HVAC loops, at ANNUAL, 04/09 08:30 - 08:34
   **   ~~~   ** The solution for one or more of the Air Loop HVAC systems did not appear to converge
   **   ~~~   ** Air System Named = CENTRAL SYSTEM did not converge for mass flow rate
   **   ~~~   ** Check values should be zero. Most Recent values listed first.
   **   ~~~   ** Demand-to-Supply interface mass flow rate check value iteration history trace: 6.463237E-002,6.463237E-002,6.463237E-002,6.463237E-002,6.463237E-002,6.463237E-002,6.463237E-002,6.463237E-002,6.463237E-002,6.463237E-002,
   **   ~~~   ** Supply-to-demand interface deck 1 mass flow rate check value iteration history trace: 6.463237E-002,6.463237E-002,6.463237E-002,6.463237E-002,6.463237E-002,6.463237E-002,6.463237E-002,6.463237E-002,6.463237E-002,6.463237E-002,
   **   ~~~   ** Air System Named = CENTRAL SYSTEM did not converge for energy
   **   ~~~   ** Check values should be zero. Most Recent values listed first.
   **   ~~~   ** Demand-to-Supply interface energy check value iteration history trace: 1280.804323,1280.804323,1280.804323,1280.804323,1280.804323,1280.804323,1280.804322,1280.804322,1280.804322,1280.804322,
   **   ~~~   ** Supply-to-demand interface deck 1 energy check value iteration history trace: 2198.027208,2198.027208,2198.027208,2198.027207,2198.027207,2198.027207,2198.027207,2198.027207,2198.027207,2198.027207,
   ** Warning ** SimHVAC: Maximum iterations (20) exceeded for all HVAC loops, at ANNUAL, 04/14 23:00 - 23:15
   **   ~~~   ** The solution for one or more of the Air Loop HVAC systems did not appear to converge
   **   ~~~   ** Air System Named = CENTRAL SYSTEM did not converge for mass flow rate
   **   ~~~   ** Check values should be zero. Most Recent values listed first.
   **   ~~~   ** Demand-to-Supply interface mass flow rate check value iteration history trace: 3.440006E-002,3.440006E-002,3.440006E-002,3.440006E-002,3.440006E-002,3.440006E-002,3.440006E-002,3.440006E-002,3.440006E-002,3.440006E-002,
   **   ~~~   ** Supply-to-demand interface deck 1 mass flow rate check value iteration history trace: 3.440006E-002,3.440006E-002,3.440006E-002,3.440006E-002,3.440006E-002,3.440006E-002,3.440006E-002,3.440006E-002,3.440006E-002,3.440006E-002,
   **   ~~~   ** Air System Named = CENTRAL SYSTEM did not converge for energy
   **   ~~~   ** Check values should be zero. Most Recent values listed first.
   **   ~~~   ** Demand-to-Supply interface energy check value iteration history trace: 633.238332,633.238332,633.238332,633.238332,633.238332,633.238332,633.238332,633.238332,633.238332,633.238332,
   **   ~~~   ** Supply-to-demand interface deck 1 energy check value iteration history trace: 1163.766034,1163.766034,1163.766033,1163.766033,1163.766033,1163.766033,1163.766033,1163.766033,1163.766033,1163.766033,
   ** Warning ** SimHVAC: Maximum iterations (20) exceeded for all HVAC loops, at ANNUAL, 04/22 14:08 - 14:15
   **   ~~~   ** The solution for one or more of the Air Loop HVAC systems did not appear to converge
   **   ~~~   ** Air System Named = CENTRAL SYSTEM did not converge for mass flow rate
   **   ~~~   ** Check values should be zero. Most Recent values listed first.
   **   ~~~   ** Demand-to-Supply interface mass flow rate check value iteration history trace: 6.618773E-002,6.618773E-002,6.618773E-002,6.618773E-002,6.618773E-002,6.618773E-002,6.618773E-002,6.618773E-002,6.618773E-002,6.618773E-002,
   **   ~~~   ** Supply-to-demand interface deck 1 mass flow rate check value iteration history trace: 6.618773E-002,6.618773E-002,6.618773E-002,6.618773E-002,6.618773E-002,6.618773E-002,6.618773E-002,6.618773E-002,6.618773E-002,6.618773E-002,
   **   ~~~   ** Air System Named = CENTRAL SYSTEM did not converge for energy
   **   ~~~   ** Check values should be zero. Most Recent values listed first.
   **   ~~~   ** Demand-to-Supply interface energy check value iteration history trace: 1310.703598,1310.703598,1310.703598,1310.703598,1310.703598,1310.703598,1310.703598,1310.703597,1310.703597,1310.703597,
   **   ~~~   ** Supply-to-demand interface deck 1 energy check value iteration history trace: 2250.475714,2250.475713,2250.475713,2250.475713,2250.475713,2250.475713,2250.475713,2250.475713,2250.475713,2250.475712,
   ** Warning ** SimHVAC: Maximum iterations (20) exceeded for all HVAC loops, at ANNUAL, 04/24 03:23 - 03:30
   **   ~~~   ** The solution for one or more of the Air Loop HVAC systems did not appear to converge
   **   ~~~   ** Air System Named = CENTRAL SYSTEM did not converge for mass flow rate
   **   ~~~   ** Check values should be zero. Most Recent values listed first.
   **   ~~~   ** Demand-to-Supply interface mass flow rate check value iteration history trace: 7.880805E-002,7.880805E-002,7.880805E-002,7.880805E-002,7.880805E-002,7.880805E-002,7.880805E-002,7.880805E-002,7.880805E-002,7.880805E-002,
   **   ~~~   ** Supply-to-demand interface deck 1 mass flow rate check value iteration history trace: 7.880805E-002,7.880805E-002,7.880805E-002,7.880805E-002,7.880805E-002,7.880805E-002,7.880805E-002,7.880805E-002,7.880805E-002,7.880805E-002,
   **   ~~~   ** Air System Named = CENTRAL SYSTEM did not converge for energy
   **   ~~~   ** Check values should be zero. Most Recent values listed first.
   **   ~~~   ** Demand-to-Supply interface energy check value iteration history trace: 1481.013258,1481.013258,1481.013257,1481.013257,1481.013257,1481.013257,1481.013257,1481.013257,1481.013257,1481.013257,
   **   ~~~   ** Supply-to-demand interface deck 1 energy check value iteration history trace: 2270.576957,2270.576956,2270.576956,2270.576956,2270.576956,2270.576956,2270.576956,2270.576956,2270.576956,2270.576955,
   ** Warning ** SimHVAC: Maximum iterations (20) exceeded for all HVAC loops, at ANNUAL, 05/12 11:15 - 11:22
   **   ~~~   ** The solution for one or more of the Air Loop HVAC systems did not appear to converge
   **   ~~~   ** Air System Named = CENTRAL SYSTEM did not converge for mass flow rate
   **   ~~~   ** Check values should be zero. Most Recent values listed first.
   **   ~~~   ** Demand-to-Supply interface mass flow rate check value iteration history trace: 6.851281E-002,6.851281E-002,6.851281E-002,6.851281E-002,6.851281E-002,6.851281E-002,6.851281E-002,6.851281E-002,6.851281E-002,6.851281E-002,
   **   ~~~   ** Supply-to-demand interface deck 1 mass flow rate check value iteration history trace: 6.851281E-002,6.851281E-002,6.851281E-002,6.851281E-002,6.851281E-002,6.851281E-002,6.851281E-002,6.851281E-002,6.851281E-002,6.851281E-002,
   **   ~~~   ** Air System Named = CENTRAL SYSTEM did not converge for energy
   **   ~~~   ** Check values should be zero. Most Recent values listed first.
   **   ~~~   ** Demand-to-Supply interface energy check value iteration history trace: 1359.853255,1359.853255,1359.853255,1359.853255,1359.853254,1359.853254,1359.853254,1359.853254,1359.853254,1359.853254,
   **   ~~~   ** Supply-to-demand interface deck 1 energy check value iteration history trace: 2352.671733,2352.671733,2352.671733,2352.671732,2352.671732,2352.671732,2352.671732,2352.671732,2352.671732,2352.671732,
   ** Warning ** Temperature out of range [-100. to 200.] (PsyPsatFnTemp)
   **   ~~~   **  Routine=PsyTwbFnTdbWPb, Environment=ANNUAL, at Simulation time=11/18 02:30 - 02:45
   **   ~~~   **  Input Temperature=-174.10
   ************* Simulation Error Summary *************
   ** Warning ** The following Report Variables were requested but not generated -- check.rdd file
   **   ~~~   ** Either the IDF did not contain these elements, the variable name is misspelled,
   **   ~~~   ** or the requested variable is an advanced output which requires Output : Diagnostics, DisplayAdvancedReportVariables;
   ************* Key=*, VarName=BASEBOARD TOTAL HEATING ENERGY, Frequency=
   ************* Key=*, VarName=WATER HEATER NATURALGAS ENERGY, Frequency=
   ************* Key=*, VarName=COOLING COIL TOTAL HEATING ENERGY, Frequency=
   ************* There are 34 unused schedules in input.
   ************* There are 388 unused week schedules in input.
   ************* There are 396 unused day schedules in input.
   ************* Use Output:Diagnostics,DisplayUnusedSchedules; to see them.
   *************
   ************* ===== Recurring Error Summary =====
   ************* The following recurring error messages occurred.
   *************
   *************  ** Warning ** "TOTAL HOT WATER LOAD" - Target water temperature should be less than or equal to the hot water temperature error continues...
   *************  **   ~~~   **   This error occurred 137299 total times;
   *************  **   ~~~   **   during Warmup 0 times;
   *************  **   ~~~   **   during Sizing 0 times.
   *************  **   ~~~   **   Max=16.608823  Min=2.504327E-003
   *************
   *************  ** Warning ** SimHVAC: Exceeding Maximum iterations for all HVAC loops, during ANNUAL continues
   *************  **   ~~~   **   This error occurred 14 total times;
   *************  **   ~~~   **   during Warmup 0 times;
   *************  **   ~~~   **   during Sizing 0 times.
   *************
   *************  ** Warning ** Temperature out of range [-100. to 200.] (PsyPsatFnTemp)
   *************  **   ~~~   **   This error occurred 1 total times;
   *************  **   ~~~   **   during Warmup 0 times;
   *************  **   ~~~   **   during Sizing 0 times.
   *************  **   ~~~   **   Max=-174.105957 C  Min=-174.105957 C
   *************
   *************
   ************* ===== Final Error Summary =====
   ************* The following error categories occurred.  Consider correcting or noting.
   ************* Nominally Unused Constructions
   ************* ..The nominally unused constructions warning is provided to alert you to potential conditions that can cause
   ************* ..extra time during simulation. Each construction is calculated by the algorithm indicated in the HeatBalanceAlgorithm
   ************* ..object. You may remove the constructions indicated (when you use the DisplayExtraWarnings option).
   *************
   ************* EnergyPlus Warmup Error Summary. During Warmup: 1 Warning; 0 Severe Errors.
   ************* EnergyPlus Sizing Error Summary. During Sizing: 4 Warning; 0 Severe Errors.
   ************* EnergyPlus Completed Successfully-- 137346 Warning; 0 Severe Errors; Elapsed Time=00hr 01min 30.82sec
