Program Version,EnergyPlus, Version 22.2.0-c249759bad, YMD=2023.09.01 20:08,
   ************* Beginning Zone Sizing Calculations
   ** Warning ** ProcessScheduleInput: Schedule:Constant="ALWAYS ON DISCRETE", Schedule Type Limits Name="ONOFF" not found -- will not be validated
   ** Warning ** Foundation:Kiva="KIVA FOUNDATION", no Interior Horizontal Insulation Material Name defined
   **   ~~~   ** Interior Horizontal Insulation Depth will not be used.
   ** Warning ** CheckUsedConstructions: There are 15 nominally unused constructions in input.
   **   ~~~   ** Each Unused construction is shown.
   ************* Construction=INTERIOR FLOOR
   ************* Construction=INTERIOR WINDOW
   ************* Construction=EXTERIOR DOOR
   ************* Construction=INTERIOR DOOR
   ************* Construction=GABLE CONSTRUCTION
   ************* Construction=CRAWL_FLOOR
   ************* Construction=INSULATED PIPE
   ************* Construction=PLAIN PIPE
   ************* Construction=TDD PIPE
   ************* Construction=TDD DOME
   ************* Construction=TDD DIFFUSER
   ************* Construction=CRAWL WALL
   ************* Construction=CEILING-FLOOR-LAYER
   ************* Construction=SLAB CONSTRUCTION W FULL R10 INSULATION
   ************* Construction=SLAB CONSTRUCTION W FULL R5 INSULATION
   ** Warning ** GetDXCoils: Coil:Heating:DX:SingleSpeed="DX_HEATING_COIL" curve values
   **   ~~~   ** ... Defrost Energy Input Ratio Function of Temperature Curve Name = DEFROSTEIR output is not equal to 1.0 (+ or - 10%) at rated conditions.
   **   ~~~   ** ... Curve output at rated conditions = 0.152
   ************* Beginning System Sizing Calculations
   ************* Beginning Plant Sizing Calculations
   ** Warning ** Coil:WaterHeating:AirToWaterHeatPump:Wrapped "HEAT PUMP WATER HEATER EVAPORATOR": Rated air volume flow rate per watt of rated total water heating capacity is out of range
   **   ~~~   ** Min Rated Vol Flow Per Watt=[4.027E-005], Rated Vol Flow Per Watt=[1.510E-004], Max Rated Vol Flow Per Watt=[8.056E-005]. See Input-Output Reference Manual for valid range.
   ************* SizeFan: : Potential issue with equipment sizing for Fan:OnOff HEAT PUMP WATER HEATER FAN
   **   ~~~   ** User-Specified Maximum Flow Rate [m3/s] = 0.22653
   **   ~~~   ** differs from Design Size Maximum Flow Rate [m3/s] = 7.55250E-002
   **   ~~~   ** This may, or may not, indicate mismatched component sizes.
   **   ~~~   ** Verify that the value entered is intended and is consistent with other components.
   ** Warning ** Water heater = WATER HEATER TANK:  Recovery Efficiency and Energy Factor could not be calculated during the test for standard ratings
   **   ~~~   ** Setpoint was never recovered and/or heater never turned on
   ** Warning ** Check input. Pump nominal power or motor efficiency is set to 0, for pump=MAINS PRESSURE
   ** Warning ** Output:Meter: invalid Key Name="ELECTRIC_RANGE:INTERIOREQUIPMENT:ELECTRICITY" - not found.
   ** Warning ** Output:Meter: invalid Key Name="ELECTRIC_DRYER:INTERIOREQUIPMENT:ELECTRICITY" - not found.
   ** Warning ** Output:Meter: invalid Key Name="HEATRECOVERY:ELECTRICITY" - not found.
   ** Warning ** Output:Meter: invalid Key Name="HEATING:NATURALGAS" - not found.
   ** Warning ** Output:Meter: invalid Key Name="WATERSYSTEMS:NATURALGAS" - not found.
   ** Warning ** Output:Meter: invalid Key Name="PROPANE:FACILITY" - not found.
   ** Warning ** Output:Meter: invalid Key Name="HEATING:PROPANE" - not found.
   ************* Testing Individual Branch Integrity
   ************* All Branches passed integrity testing
   ************* Testing Individual Supply Air Path Integrity
   ************* All Supply Air Paths passed integrity testing
   ************* Testing Individual Return Air Path Integrity
   ************* All Return Air Paths passed integrity testing
   ************* No node connection errors were found.
   ************* Beginning Simulation
   ** Warning ** AirflowNetwork::Solver::validate_distribution: Heat pump water heater is simulated along with an AirflowNetwork but is not included in the AirflowNetwork.
   ** Warning ** CalcEquipmentFlowRates: "TOTAL HOT WATER LOAD" - Target water temperature is greater than the hot water temperature by (4.49 C)
   **   ~~~   **  Environment=EXTREME_WINTER, at Simulation time=02/03 07:00 - 07:15
   **   ~~~   ** ...target water temperature     = 53.33 C
   **   ~~~   ** ...hot water temperature        = 48.85 C
   **   ~~~   ** ...Target water temperature should be less than or equal to the hot water temperature. Verify temperature setpoints and schedules.
   ** Warning ** SimHVAC: Maximum iterations (20) exceeded for all HVAC loops, at ANNUAL, 01/09 17:00 - 17:05
   **   ~~~   ** The solution for one or more of the Air Loop HVAC systems did not appear to converge
   **   ~~~   ** Air System Named = CENTRAL SYSTEM did not converge for mass flow rate
   **   ~~~   ** Check values should be zero. Most Recent values listed first.
   **   ~~~   ** Demand-to-Supply interface mass flow rate check value iteration history trace: 5.532424E-002,5.532424E-002,5.532424E-002,5.532424E-002,5.532424E-002,5.532424E-002,5.532424E-002,5.532424E-002,5.532424E-002,5.532424E-002,
   **   ~~~   ** Supply-to-demand interface deck 1 mass flow rate check value iteration history trace: 5.532424E-002,5.532424E-002,5.532424E-002,5.532424E-002,5.532424E-002,5.532424E-002,5.532424E-002,5.532424E-002,5.532424E-002,5.532424E-002,
   **   ~~~   ** Air System Named = CENTRAL SYSTEM did not converge for energy
   **   ~~~   ** Check values should be zero. Most Recent values listed first.
   **   ~~~   ** Demand-to-Supply interface energy check value iteration history trace: 1096.347157,1096.347157,1096.347157,1096.347157,1096.347157,1096.347157,1096.347157,1096.347157,1096.347157,1096.347157,
   **   ~~~   ** Supply-to-demand interface deck 1 energy check value iteration history trace: 2038.214571,2038.214571,2038.214571,2038.214571,2038.214571,2038.214571,2038.214571,2038.214571,2038.214571,2038.214571,
   ** Warning ** SimHVAC: Maximum iterations (20) exceeded for all HVAC loops, at ANNUAL, 02/06 16:00 - 16:05
   **   ~~~   ** The solution for one or more of the Air Loop HVAC systems did not appear to converge
   **   ~~~   ** Air System Named = CENTRAL SYSTEM did not converge for mass flow rate
   **   ~~~   ** Check values should be zero. Most Recent values listed first.
   **   ~~~   ** Demand-to-Supply interface mass flow rate check value iteration history trace: 0.101787,0.101787,0.101787,0.101787,0.101787,0.101787,0.101787,0.101787,0.101787,0.101787,
   **   ~~~   ** Supply-to-demand interface deck 1 mass flow rate check value iteration history trace: 0.101787,0.101787,0.101787,0.101787,0.101787,0.101787,0.101787,0.101787,0.101787,0.101787,
   **   ~~~   ** Air System Named = CENTRAL SYSTEM did not converge for energy
   **   ~~~   ** Check values should be zero. Most Recent values listed first.
   **   ~~~   ** Demand-to-Supply interface energy check value iteration history trace: 2019.408289,2019.408289,2019.408288,2019.408288,2019.408288,2019.408288,2019.408288,2019.408288,2019.408288,2019.408287,
   **   ~~~   ** Supply-to-demand interface deck 1 energy check value iteration history trace: 3120.095119,3120.095119,3120.095118,3120.095118,3120.095118,3120.095118,3120.095118,3120.095117,3120.095117,3120.095117,
   ** Warning ** SimHVAC: Maximum iterations (20) exceeded for all HVAC loops, at ANNUAL, 02/10 17:41 - 17:45
   **   ~~~   ** The solution for one or more of the Air Loop HVAC systems did not appear to converge
   **   ~~~   ** Air System Named = CENTRAL SYSTEM did not converge for mass flow rate
   **   ~~~   ** Check values should be zero. Most Recent values listed first.
   **   ~~~   ** Demand-to-Supply interface mass flow rate check value iteration history trace: 9.047295E-002,9.047295E-002,9.047295E-002,9.047295E-002,9.047295E-002,9.047295E-002,9.047295E-002,9.047295E-002,9.047295E-002,9.047295E-002,
   **   ~~~   ** Supply-to-demand interface deck 1 mass flow rate check value iteration history trace: 9.047295E-002,9.047295E-002,9.047295E-002,9.047295E-002,9.047295E-002,9.047295E-002,9.047295E-002,9.047295E-002,9.047295E-002,9.047295E-002,
   **   ~~~   ** Air System Named = CENTRAL SYSTEM did not converge for energy
   **   ~~~   ** Check values should be zero. Most Recent values listed first.
   **   ~~~   ** Demand-to-Supply interface energy check value iteration history trace: 1787.501561,1787.501561,1787.501561,1787.501561,1787.501561,1787.501561,1787.501561,1787.501561,1787.501560,1787.501560,
   **   ~~~   ** Supply-to-demand interface deck 1 energy check value iteration history trace: 2851.577094,2851.577094,2851.577094,2851.577093,2851.577093,2851.577093,2851.577093,2851.577093,2851.577093,2851.577093,
   ** Warning ** SimHVAC: Maximum iterations (20) exceeded for all HVAC loops, at ANNUAL, 02/10 18:15 - 18:19
   **   ~~~   ** The solution for one or more of the Air Loop HVAC systems did not appear to converge
   **   ~~~   ** Air System Named = CENTRAL SYSTEM did not converge for mass flow rate
   **   ~~~   ** Check values should be zero. Most Recent values listed first.
   **   ~~~   ** Demand-to-Supply interface mass flow rate check value iteration history trace: 8.691609E-002,8.691609E-002,8.691609E-002,8.691609E-002,8.691609E-002,8.691609E-002,8.691609E-002,8.691609E-002,8.691609E-002,8.691609E-002,
   **   ~~~   ** Supply-to-demand interface deck 1 mass flow rate check value iteration history trace: 8.691609E-002,8.691609E-002,8.691609E-002,8.691609E-002,8.691609E-002,8.691609E-002,8.691609E-002,8.691609E-002,8.691609E-002,8.691609E-002,
   **   ~~~   ** Air System Named = CENTRAL SYSTEM did not converge for energy
   **   ~~~   ** Check values should be zero. Most Recent values listed first.
   **   ~~~   ** Demand-to-Supply interface energy check value iteration history trace: 1718.590816,1718.590816,1718.590815,1718.590815,1718.590815,1718.590815,1718.590815,1718.590815,1718.590815,1718.590815,
   **   ~~~   ** Supply-to-demand interface deck 1 energy check value iteration history trace: 2753.417047,2753.417047,2753.417047,2753.417047,2753.417046,2753.417046,2753.417046,2753.417046,2753.417046,2753.417046,
   ** Warning ** SimHVAC: Maximum iterations (20) exceeded for all HVAC loops, at ANNUAL, 02/10 18:30 - 18:45
   **   ~~~   ** The solution for one or more of the Air Loop HVAC systems did not appear to converge
   **   ~~~   ** Air System Named = CENTRAL SYSTEM did not converge for mass flow rate
   **   ~~~   ** Check values should be zero. Most Recent values listed first.
   **   ~~~   ** Demand-to-Supply interface mass flow rate check value iteration history trace: 9.589273E-002,9.589273E-002,9.589273E-002,9.589273E-002,9.589273E-002,9.589273E-002,9.589273E-002,9.589273E-002,9.589273E-002,9.589273E-002,
   **   ~~~   ** Supply-to-demand interface deck 1 mass flow rate check value iteration history trace: 9.589273E-002,9.589273E-002,9.589273E-002,9.589273E-002,9.589273E-002,9.589273E-002,9.589273E-002,9.589273E-002,9.589273E-002,9.589273E-002,
   **   ~~~   ** Air System Named = CENTRAL SYSTEM did not converge for energy
   **   ~~~   ** Check values should be zero. Most Recent values listed first.
   **   ~~~   ** Demand-to-Supply interface energy check value iteration history trace: 1899.053644,1899.053644,1899.053644,1899.053643,1899.053643,1899.053643,1899.053643,1899.053643,1899.053643,1899.053643,
   **   ~~~   ** Supply-to-demand interface deck 1 energy check value iteration history trace: 3053.961698,3053.961698,3053.961698,3053.961698,3053.961697,3053.961697,3053.961697,3053.961697,3053.961697,3053.961697,
   ** Warning ** SimHVAC: Maximum iterations (20) exceeded for all HVAC loops, at ANNUAL, 02/18 18:45 - 19:00
   **   ~~~   ** The solution for one or more of the Air Loop HVAC systems did not appear to converge
   **   ~~~   ** Air System Named = CENTRAL SYSTEM did not converge for mass flow rate
   **   ~~~   ** Check values should be zero. Most Recent values listed first.
   **   ~~~   ** Demand-to-Supply interface mass flow rate check value iteration history trace: 6.810199E-002,6.810199E-002,6.810199E-002,6.810199E-002,6.810199E-002,6.810199E-002,6.810199E-002,6.810199E-002,6.810199E-002,6.810199E-002,
   **   ~~~   ** Supply-to-demand interface deck 1 mass flow rate check value iteration history trace: 6.810199E-002,6.810199E-002,6.810199E-002,6.810199E-002,6.810199E-002,6.810199E-002,6.810199E-002,6.810199E-002,6.810199E-002,6.810199E-002,
   **   ~~~   ** Air System Named = CENTRAL SYSTEM did not converge for energy
   **   ~~~   ** Check values should be zero. Most Recent values listed first.
   **   ~~~   ** Demand-to-Supply interface energy check value iteration history trace: 1347.842484,1347.842484,1347.842484,1347.842484,1347.842484,1347.842484,1347.842483,1347.842483,1347.842483,1347.842483,
   **   ~~~   ** Supply-to-demand interface deck 1 energy check value iteration history trace: 2179.237188,2179.237188,2179.237188,2179.237188,2179.237187,2179.237187,2179.237187,2179.237187,2179.237187,2179.237187,
   ** Warning ** SimHVAC: Maximum iterations (20) exceeded for all HVAC loops, at ANNUAL, 02/26 14:00 - 14:15
   **   ~~~   ** The solution for one or more of the Air Loop HVAC systems did not appear to converge
   **   ~~~   ** Air System Named = CENTRAL SYSTEM did not converge for mass flow rate
   **   ~~~   ** Check values should be zero. Most Recent values listed first.
   **   ~~~   ** Demand-to-Supply interface mass flow rate check value iteration history trace: 4.873213E-002,4.873213E-002,4.873213E-002,4.873213E-002,4.873213E-002,4.873213E-002,4.873213E-002,4.873213E-002,4.873213E-002,4.873213E-002,
   **   ~~~   ** Supply-to-demand interface deck 1 mass flow rate check value iteration history trace: 4.873213E-002,4.873213E-002,4.873213E-002,4.873213E-002,4.873213E-002,4.873213E-002,4.873213E-002,4.873213E-002,4.873213E-002,4.873213E-002,
   **   ~~~   ** Air System Named = CENTRAL SYSTEM did not converge for energy
   **   ~~~   ** Check values should be zero. Most Recent values listed first.
   **   ~~~   ** Demand-to-Supply interface energy check value iteration history trace: 957.931078,957.931078,957.931078,957.931078,957.931078,957.931078,957.931078,957.931078,957.931078,957.931078,
   **   ~~~   ** Supply-to-demand interface deck 1 energy check value iteration history trace: 1727.889724,1727.889724,1727.889724,1727.889724,1727.889724,1727.889724,1727.889724,1727.889723,1727.889723,1727.889723,
   ** Warning ** SimHVAC: Maximum iterations (20) exceeded for all HVAC loops, at ANNUAL, 03/09 11:45 - 12:00
   **   ~~~   ** The solution for one or more of the Air Loop HVAC systems did not appear to converge
   **   ~~~   ** Air System Named = CENTRAL SYSTEM did not converge for mass flow rate
   **   ~~~   ** Check values should be zero. Most Recent values listed first.
   **   ~~~   ** Demand-to-Supply interface mass flow rate check value iteration history trace: 7.559454E-002,7.559454E-002,7.559454E-002,7.559454E-002,7.559454E-002,7.559454E-002,7.559454E-002,7.559454E-002,7.559454E-002,7.559454E-002,
   **   ~~~   ** Supply-to-demand interface deck 1 mass flow rate check value iteration history trace: 7.559454E-002,7.559454E-002,7.559454E-002,7.559454E-002,7.559454E-002,7.559454E-002,7.559454E-002,7.559454E-002,7.559454E-002,7.559454E-002,
   **   ~~~   ** Air System Named = CENTRAL SYSTEM did not converge for energy
   **   ~~~   ** Check values should be zero. Most Recent values listed first.
   **   ~~~   ** Demand-to-Supply interface energy check value iteration history trace: 1498.098138,1498.098137,1498.098137,1498.098137,1498.098137,1498.098137,1498.098137,1498.098137,1498.098137,1498.098137,
   **   ~~~   ** Supply-to-demand interface deck 1 energy check value iteration history trace: 2461.274500,2461.274500,2461.274500,2461.274500,2461.274500,2461.274500,2461.274500,2461.274500,2461.274499,2461.274499,
   ** Warning ** SimHVAC: Maximum iterations (20) exceeded for all HVAC loops, at ANNUAL, 03/09 23:15 - 23:30
   **   ~~~   ** The solution for one or more of the Air Loop HVAC systems did not appear to converge
   **   ~~~   ** Air System Named = CENTRAL SYSTEM did not converge for mass flow rate
   **   ~~~   ** Check values should be zero. Most Recent values listed first.
   **   ~~~   ** Demand-to-Supply interface mass flow rate check value iteration history trace: 6.664861E-002,6.664861E-002,6.664861E-002,6.664861E-002,6.664861E-002,6.664861E-002,6.664861E-002,6.664861E-002,6.664861E-002,6.664861E-002,
   **   ~~~   ** Supply-to-demand interface deck 1 mass flow rate check value iteration history trace: 6.664861E-002,6.664861E-002,6.664861E-002,6.664861E-002,6.664861E-002,6.664861E-002,6.664861E-002,6.664861E-002,6.664861E-002,6.664861E-002,
   **   ~~~   ** Air System Named = CENTRAL SYSTEM did not converge for energy
   **   ~~~   ** Check values should be zero. Most Recent values listed first.
   **   ~~~   ** Demand-to-Supply interface energy check value iteration history trace: 1235.034658,1235.034658,1235.034658,1235.034657,1235.034657,1235.034657,1235.034657,1235.034657,1235.034657,1235.034657,
   **   ~~~   ** Supply-to-demand interface deck 1 energy check value iteration history trace: 2086.390774,2086.390774,2086.390773,2086.390773,2086.390773,2086.390773,2086.390773,2086.390773,2086.390773,2086.390773,
   ** Warning ** SimHVAC: Maximum iterations (20) exceeded for all HVAC loops, at ANNUAL, 03/13 11:45 - 11:52
   **   ~~~   ** The solution for one or more of the Air Loop HVAC systems did not appear to converge
   **   ~~~   ** Air System Named = CENTRAL SYSTEM did not converge for mass flow rate
   **   ~~~   ** Check values should be zero. Most Recent values listed first.
   **   ~~~   ** Demand-to-Supply interface mass flow rate check value iteration history trace: 4.919108E-002,4.919108E-002,4.919108E-002,4.919108E-002,4.919108E-002,4.919108E-002,4.919108E-002,4.919108E-002,4.919108E-002,4.919108E-002,
   **   ~~~   ** Supply-to-demand interface deck 1 mass flow rate check value iteration history trace: 4.919108E-002,4.919108E-002,4.919108E-002,4.919108E-002,4.919108E-002,4.919108E-002,4.919108E-002,4.919108E-002,4.919108E-002,4.919108E-002,
   **   ~~~   ** Air System Named = CENTRAL SYSTEM did not converge for energy
   **   ~~~   ** Check values should be zero. Most Recent values listed first.
   **   ~~~   ** Demand-to-Supply interface energy check value iteration history trace: 968.072099,968.072099,968.072099,968.072099,968.072099,968.072099,968.072099,968.072099,968.072099,968.072099,
   **   ~~~   ** Supply-to-demand interface deck 1 energy check value iteration history trace: 1913.196320,1913.196320,1913.196320,1913.196320,1913.196320,1913.196320,1913.196320,1913.196320,1913.196320,1913.196320,
   **   ~~~   ** Node named ZONE INLET NODE shows oscillating temperatures across iterations with a repeated value of 38.705669
   **   ~~~   ** Node named ZONE INLET NODE temperature [C] iteration history trace (most recent first): 38.705669,38.705669,38.705669,38.705668,38.705668,38.705668,38.705668,38.705667,38.705667,38.705667,
   ** Warning ** SimHVAC: Maximum iterations (20) exceeded for all HVAC loops, at ANNUAL, 03/23 10:15 - 10:17
   **   ~~~   ** The solution for one or more of the Air Loop HVAC systems did not appear to converge
   **   ~~~   ** Air System Named = CENTRAL SYSTEM did not converge for mass flow rate
   **   ~~~   ** Check values should be zero. Most Recent values listed first.
   **   ~~~   ** Demand-to-Supply interface mass flow rate check value iteration history trace: 6.705972E-002,6.705972E-002,6.705972E-002,6.705972E-002,6.705972E-002,6.705972E-002,6.705972E-002,6.705972E-002,6.705972E-002,6.705972E-002,
   **   ~~~   ** Supply-to-demand interface deck 1 mass flow rate check value iteration history trace: 6.705972E-002,6.705972E-002,6.705972E-002,6.705972E-002,6.705972E-002,6.705972E-002,6.705972E-002,6.705972E-002,6.705972E-002,6.705972E-002,
   **   ~~~   ** Air System Named = CENTRAL SYSTEM did not converge for energy
   **   ~~~   ** Check values should be zero. Most Recent values listed first.
   **   ~~~   ** Demand-to-Supply interface energy check value iteration history trace: 1328.947364,1328.947364,1328.947364,1328.947364,1328.947364,1328.947364,1328.947364,1328.947364,1328.947364,1328.947364,
   **   ~~~   ** Supply-to-demand interface deck 1 energy check value iteration history trace: 2397.005982,2397.005982,2397.005982,2397.005982,2397.005982,2397.005982,2397.005982,2397.005982,2397.005981,2397.005981,
   ** Warning ** SimHVAC: Maximum iterations (20) exceeded for all HVAC loops, at ANNUAL, 03/25 11:30 - 11:45
   **   ~~~   ** The solution for one or more of the Air Loop HVAC systems did not appear to converge
   **   ~~~   ** Air System Named = CENTRAL SYSTEM did not converge for mass flow rate
   **   ~~~   ** Check values should be zero. Most Recent values listed first.
   **   ~~~   ** Demand-to-Supply interface mass flow rate check value iteration history trace: 5.785002E-002,5.785002E-002,5.785002E-002,5.785002E-002,5.785002E-002,5.785002E-002,5.785002E-002,5.785002E-002,5.785002E-002,5.785002E-002,
   **   ~~~   ** Supply-to-demand interface deck 1 mass flow rate check value iteration history trace: 5.785002E-002,5.785002E-002,5.785002E-002,5.785002E-002,5.785002E-002,5.785002E-002,5.785002E-002,5.785002E-002,5.785002E-002,5.785002E-002,
   **   ~~~   ** Air System Named = CENTRAL SYSTEM did not converge for energy
   **   ~~~   ** Check values should be zero. Most Recent values listed first.
   **   ~~~   ** Demand-to-Supply interface energy check value iteration history trace: 1146.361771,1146.361771,1146.361771,1146.361771,1146.361771,1146.361771,1146.361771,1146.361771,1146.361771,1146.361771,
   **   ~~~   ** Supply-to-demand interface deck 1 energy check value iteration history trace: 2047.767647,2047.767647,2047.767647,2047.767647,2047.767646,2047.767646,2047.767646,2047.767646,2047.767646,2047.767646,
   ** Warning ** SimHVAC: Maximum iterations (20) exceeded for all HVAC loops, at ANNUAL, 04/05 11:15 - 11:30
   **   ~~~   ** The solution for one or more of the Air Loop HVAC systems did not appear to converge
   **   ~~~   ** Air System Named = CENTRAL SYSTEM did not converge for mass flow rate
   **   ~~~   ** Check values should be zero. Most Recent values listed first.
   **   ~~~   ** Demand-to-Supply interface mass flow rate check value iteration history trace: 7.225946E-002,7.225946E-002,7.225946E-002,7.225946E-002,7.225946E-002,7.225946E-002,7.225946E-002,7.225946E-002,7.225946E-002,7.225946E-002,
   **   ~~~   ** Supply-to-demand interface deck 1 mass flow rate check value iteration history trace: 7.225946E-002,7.225946E-002,7.225946E-002,7.225946E-002,7.225946E-002,7.225946E-002,7.225946E-002,7.225946E-002,7.225946E-002,7.225946E-002,
   **   ~~~   ** Air System Named = CENTRAL SYSTEM did not converge for energy
   **   ~~~   ** Check values should be zero. Most Recent values listed first.
   **   ~~~   ** Demand-to-Supply interface energy check value iteration history trace: 1407.820707,1407.820707,1407.820707,1407.820707,1407.820707,1407.820707,1407.820707,1407.820707,1407.820707,1407.820707,
   **   ~~~   ** Supply-to-demand interface deck 1 energy check value iteration history trace: 2390.399525,2390.399525,2390.399525,2390.399525,2390.399525,2390.399525,2390.399525,2390.399525,2390.399524,2390.399524,
   ** Warning ** SimHVAC: Maximum iterations (20) exceeded for all HVAC loops, at ANNUAL, 04/14 12:15 - 12:30
   **   ~~~   ** The solution for one or more of the Air Loop HVAC systems did not appear to converge
   **   ~~~   ** Air System Named = CENTRAL SYSTEM did not converge for mass flow rate
   **   ~~~   ** Check values should be zero. Most Recent values listed first.
   **   ~~~   ** Demand-to-Supply interface mass flow rate check value iteration history trace: 5.866057E-002,5.866057E-002,5.866057E-002,5.866057E-002,5.866057E-002,5.866057E-002,5.866057E-002,5.866057E-002,5.866057E-002,5.866057E-002,
   **   ~~~   ** Supply-to-demand interface deck 1 mass flow rate check value iteration history trace: 5.866057E-002,5.866057E-002,5.866057E-002,5.866057E-002,5.866057E-002,5.866057E-002,5.866057E-002,5.866057E-002,5.866057E-002,5.866057E-002,
   **   ~~~   ** Air System Named = CENTRAL SYSTEM did not converge for energy
   **   ~~~   ** Check values should be zero. Most Recent values listed first.
   **   ~~~   ** Demand-to-Supply interface energy check value iteration history trace: 1145.673879,1145.673879,1145.673879,1145.673879,1145.673879,1145.673879,1145.673879,1145.673879,1145.673879,1145.673879,
   **   ~~~   ** Supply-to-demand interface deck 1 energy check value iteration history trace: 2077.804993,2077.804993,2077.804993,2077.804993,2077.804992,2077.804992,2077.804992,2077.804992,2077.804992,2077.804992,
   ************* Simulation Error Summary *************
   ** Warning ** The following Report Variables were requested but not generated -- check.rdd file
   **   ~~~   ** Either the IDF did not contain these elements, the variable name is misspelled,
   **   ~~~   ** or the requested variable is an advanced output which requires Output : Diagnostics, DisplayAdvancedReportVariables;
   ************* Key=*, VarName=BASEBOARD TOTAL HEATING ENERGY, Frequency=
   ************* Key=*, VarName=WATER HEATER NATURALGAS ENERGY, Frequency=
   ************* Key=*, VarName=COOLING COIL TOTAL HEATING ENERGY, Frequency=
   ************* There are 34 unused schedules in input.
   ************* There are 388 unused week schedules in input.
   ************* There are 396 unused day schedules in input.
   ************* Use Output:Diagnostics,DisplayUnusedSchedules; to see them.
   *************
   ************* ===== Recurring Error Summary =====
   ************* The following recurring error messages occurred.
   *************
   *************  ** Warning ** "TOTAL HOT WATER LOAD" - Target water temperature should be less than or equal to the hot water temperature error continues...
   *************  **   ~~~   **   This error occurred 129853 total times;
   *************  **   ~~~   **   during Warmup 0 times;
   *************  **   ~~~   **   during Sizing 0 times.
   *************  **   ~~~   **   Max=14.166831  Min=3.654646E-004
   *************
   *************  ** Warning ** SimHVAC: Exceeding Maximum iterations for all HVAC loops, during ANNUAL continues
   *************  **   ~~~   **   This error occurred 20 total times;
   *************  **   ~~~   **   during Warmup 0 times;
   *************  **   ~~~   **   during Sizing 0 times.
   *************
   *************
   ************* ===== Final Error Summary =====
   ************* The following error categories occurred.  Consider correcting or noting.
   ************* Nominally Unused Constructions
   ************* ..The nominally unused constructions warning is provided to alert you to potential conditions that can cause
   ************* ..extra time during simulation. Each construction is calculated by the algorithm indicated in the HeatBalanceAlgorithm
   ************* ..object. You may remove the constructions indicated (when you use the DisplayExtraWarnings option).
   *************
   ************* EnergyPlus Warmup Error Summary. During Warmup: 1 Warning; 0 Severe Errors.
   ************* EnergyPlus Sizing Error Summary. During Sizing: 4 Warning; 0 Severe Errors.
   ************* EnergyPlus Completed Successfully-- 129904 Warning; 0 Severe Errors; Elapsed Time=00hr 01min 26.94sec
