Program Version,EnergyPlus, Version 22.2.0-c249759bad, YMD=2023.09.01 20:04,
   ************* Beginning Zone Sizing Calculations
   ** Warning ** ProcessScheduleInput: Schedule:Constant="ALWAYS ON DISCRETE", Schedule Type Limits Name="ONOFF" not found -- will not be validated
   ** Warning ** Foundation:Kiva="KIVA FOUNDATION", no Interior Horizontal Insulation Material Name defined
   **   ~~~   ** Interior Horizontal Insulation Depth will not be used.
   ** Warning ** CheckUsedConstructions: There are 15 nominally unused constructions in input.
   **   ~~~   ** Each Unused construction is shown.
   ************* Construction=INTERIOR FLOOR
   ************* Construction=INTERIOR WINDOW
   ************* Construction=EXTERIOR DOOR
   ************* Construction=INTERIOR DOOR
   ************* Construction=GABLE CONSTRUCTION
   ************* Construction=CRAWL_FLOOR
   ************* Construction=INSULATED PIPE
   ************* Construction=PLAIN PIPE
   ************* Construction=TDD PIPE
   ************* Construction=TDD DOME
   ************* Construction=TDD DIFFUSER
   ************* Construction=CRAWL WALL
   ************* Construction=CEILING-FLOOR-LAYER
   ************* Construction=SLAB CONSTRUCTION W FULL R10 INSULATION
   ************* Construction=SLAB CONSTRUCTION W FULL R5 INSULATION
   ** Warning ** GetDXCoils: Coil:Heating:DX:SingleSpeed="DX_HEATING_COIL" curve values
   **   ~~~   ** ... Defrost Energy Input Ratio Function of Temperature Curve Name = DEFROSTEIR output is not equal to 1.0 (+ or - 10%) at rated conditions.
   **   ~~~   ** ... Curve output at rated conditions = 0.152
   ************* Beginning System Sizing Calculations
   ************* Beginning Plant Sizing Calculations
   ** Warning ** Coil:WaterHeating:AirToWaterHeatPump:Wrapped "HEAT PUMP WATER HEATER EVAPORATOR": Rated air volume flow rate per watt of rated total water heating capacity is out of range
   **   ~~~   ** Min Rated Vol Flow Per Watt=[4.027E-005], Rated Vol Flow Per Watt=[1.510E-004], Max Rated Vol Flow Per Watt=[8.056E-005]. See Input-Output Reference Manual for valid range.
   ************* SizeFan: : Potential issue with equipment sizing for Fan:OnOff HEAT PUMP WATER HEATER FAN
   **   ~~~   ** User-Specified Maximum Flow Rate [m3/s] = 0.22653
   **   ~~~   ** differs from Design Size Maximum Flow Rate [m3/s] = 7.55250E-002
   **   ~~~   ** This may, or may not, indicate mismatched component sizes.
   **   ~~~   ** Verify that the value entered is intended and is consistent with other components.
   ** Warning ** Water heater = WATER HEATER TANK:  Recovery Efficiency and Energy Factor could not be calculated during the test for standard ratings
   **   ~~~   ** Setpoint was never recovered and/or heater never turned on
   ** Warning ** Check input. Pump nominal power or motor efficiency is set to 0, for pump=MAINS PRESSURE
   ** Warning ** Output:Meter: invalid Key Name="ELECTRIC_RANGE:INTERIOREQUIPMENT:ELECTRICITY" - not found.
   ** Warning ** Output:Meter: invalid Key Name="ELECTRIC_DRYER:INTERIOREQUIPMENT:ELECTRICITY" - not found.
   ** Warning ** Output:Meter: invalid Key Name="HEATRECOVERY:ELECTRICITY" - not found.
   ** Warning ** Output:Meter: invalid Key Name="HEATING:NATURALGAS" - not found.
   ** Warning ** Output:Meter: invalid Key Name="WATERSYSTEMS:NATURALGAS" - not found.
   ** Warning ** Output:Meter: invalid Key Name="PROPANE:FACILITY" - not found.
   ** Warning ** Output:Meter: invalid Key Name="HEATING:PROPANE" - not found.
   ************* Testing Individual Branch Integrity
   ************* All Branches passed integrity testing
   ************* Testing Individual Supply Air Path Integrity
   ************* All Supply Air Paths passed integrity testing
   ************* Testing Individual Return Air Path Integrity
   ************* All Return Air Paths passed integrity testing
   ************* No node connection errors were found.
   ************* Beginning Simulation
   ** Warning ** AirflowNetwork::Solver::validate_distribution: Heat pump water heater is simulated along with an AirflowNetwork but is not included in the AirflowNetwork.
   ** Warning ** CalcEquipmentFlowRates: "TOTAL HOT WATER LOAD" - Target water temperature is greater than the hot water temperature by (3.88 C)
   **   ~~~   **  Environment=EXTREME_WINTER, at Simulation time=01/13 07:00 - 07:15
   **   ~~~   ** ...target water temperature     = 53.33 C
   **   ~~~   ** ...hot water temperature        = 49.46 C
   **   ~~~   ** ...Target water temperature should be less than or equal to the hot water temperature. Verify temperature setpoints and schedules.
   ** Warning ** SimHVAC: Maximum iterations (20) exceeded for all HVAC loops, at ANNUAL, 01/02 11:45 - 12:00
   **   ~~~   ** The solution for one or more of the Air Loop HVAC systems did not appear to converge
   **   ~~~   ** Air System Named = CENTRAL SYSTEM did not converge for mass flow rate
   **   ~~~   ** Check values should be zero. Most Recent values listed first.
   **   ~~~   ** Demand-to-Supply interface mass flow rate check value iteration history trace: 6.681833E-002,6.681833E-002,6.681833E-002,6.681833E-002,6.681833E-002,6.681833E-002,6.681833E-002,6.681833E-002,6.681833E-002,6.681833E-002,
   **   ~~~   ** Supply-to-demand interface deck 1 mass flow rate check value iteration history trace: 6.681833E-002,6.681833E-002,6.681833E-002,6.681833E-002,6.681833E-002,6.681833E-002,6.681833E-002,6.681833E-002,6.681833E-002,6.681833E-002,
   **   ~~~   ** Air System Named = CENTRAL SYSTEM did not converge for energy
   **   ~~~   ** Check values should be zero. Most Recent values listed first.
   **   ~~~   ** Demand-to-Supply interface energy check value iteration history trace: 1321.325303,1321.325303,1321.325303,1321.325303,1321.325303,1321.325303,1321.325303,1321.325303,1321.325303,1321.325303,
   **   ~~~   ** Supply-to-demand interface deck 1 energy check value iteration history trace: 2237.695301,2237.695301,2237.695300,2237.695300,2237.695300,2237.695300,2237.695300,2237.695300,2237.695300,2237.695300,
   ** Warning ** SimHVAC: Maximum iterations (20) exceeded for all HVAC loops, at ANNUAL, 01/10 10:45 - 10:49
   **   ~~~   ** The solution for one or more of the Air Loop HVAC systems did not appear to converge
   **   ~~~   ** Air System Named = CENTRAL SYSTEM did not converge for mass flow rate
   **   ~~~   ** Check values should be zero. Most Recent values listed first.
   **   ~~~   ** Demand-to-Supply interface mass flow rate check value iteration history trace: 7.906713E-002,7.906713E-002,7.906713E-002,7.906713E-002,7.906713E-002,7.906713E-002,7.906713E-002,7.906713E-002,7.906713E-002,7.906713E-002,
   **   ~~~   ** Supply-to-demand interface deck 1 mass flow rate check value iteration history trace: 7.906713E-002,7.906713E-002,7.906713E-002,7.906713E-002,7.906713E-002,7.906713E-002,7.906713E-002,7.906713E-002,7.906713E-002,7.906713E-002,
   **   ~~~   ** Air System Named = CENTRAL SYSTEM did not converge for energy
   **   ~~~   ** Check values should be zero. Most Recent values listed first.
   **   ~~~   ** Demand-to-Supply interface energy check value iteration history trace: 1566.811445,1566.811445,1566.811445,1566.811445,1566.811444,1566.811444,1566.811444,1566.811444,1566.811443,1566.811443,
   **   ~~~   ** Supply-to-demand interface deck 1 energy check value iteration history trace: 2729.257799,2729.257799,2729.257798,2729.257798,2729.257797,2729.257797,2729.257796,2729.257796,2729.257795,2729.257795,
   **   ~~~   ** Node named ZONE INLET NODE shows oscillating temperatures across iterations with a repeated value of 34.351842
   **   ~~~   ** Node named ZONE INLET NODE temperature [C] iteration history trace (most recent first): 34.351842,34.351841,34.351841,34.351841,34.351841,34.351840,34.351840,34.351840,34.351840,34.351839,
   ** Warning ** SimHVAC: Maximum iterations (20) exceeded for all HVAC loops, at ANNUAL, 01/10 21:45 - 21:52
   **   ~~~   ** The solution for one or more of the Air Loop HVAC systems did not appear to converge
   **   ~~~   ** Air System Named = CENTRAL SYSTEM did not converge for mass flow rate
   **   ~~~   ** Check values should be zero. Most Recent values listed first.
   **   ~~~   ** Demand-to-Supply interface mass flow rate check value iteration history trace: 6.197146E-002,6.197146E-002,6.197146E-002,6.197146E-002,6.197146E-002,6.197146E-002,6.197146E-002,6.197146E-002,6.197146E-002,6.197146E-002,
   **   ~~~   ** Supply-to-demand interface deck 1 mass flow rate check value iteration history trace: 6.197146E-002,6.197146E-002,6.197146E-002,6.197146E-002,6.197146E-002,6.197146E-002,6.197146E-002,6.197146E-002,6.197146E-002,6.197146E-002,
   **   ~~~   ** Air System Named = CENTRAL SYSTEM did not converge for energy
   **   ~~~   ** Check values should be zero. Most Recent values listed first.
   **   ~~~   ** Demand-to-Supply interface energy check value iteration history trace: 1226.152615,1226.152615,1226.152615,1226.152615,1226.152614,1226.152614,1226.152614,1226.152614,1226.152614,1226.152613,
   **   ~~~   ** Supply-to-demand interface deck 1 energy check value iteration history trace: 2123.847063,2123.847063,2123.847063,2123.847062,2123.847062,2123.847062,2123.847061,2123.847061,2123.847060,2123.847060,
   **   ~~~   ** Node named ZONE INLET NODE shows oscillating temperatures across iterations with a repeated value of 34.106170
   **   ~~~   ** Node named ZONE INLET NODE temperature [C] iteration history trace (most recent first): 34.106170,34.106170,34.106170,34.106170,34.106169,34.106169,34.106169,34.106169,34.106168,34.106168,
   ** Warning ** SimHVAC: Maximum iterations (20) exceeded for all HVAC loops, at ANNUAL, 01/18 12:00 - 12:15
   **   ~~~   ** The solution for one or more of the Air Loop HVAC systems did not appear to converge
   **   ~~~   ** Air System Named = CENTRAL SYSTEM did not converge for mass flow rate
   **   ~~~   ** Check values should be zero. Most Recent values listed first.
   **   ~~~   ** Demand-to-Supply interface mass flow rate check value iteration history trace: 8.558236E-002,8.558236E-002,8.558236E-002,8.558236E-002,8.558236E-002,8.558236E-002,8.558236E-002,8.558236E-002,8.558236E-002,8.558236E-002,
   **   ~~~   ** Supply-to-demand interface deck 1 mass flow rate check value iteration history trace: 8.558236E-002,8.558236E-002,8.558236E-002,8.558236E-002,8.558236E-002,8.558236E-002,8.558236E-002,8.558236E-002,8.558236E-002,8.558236E-002,
   **   ~~~   ** Air System Named = CENTRAL SYSTEM did not converge for energy
   **   ~~~   ** Check values should be zero. Most Recent values listed first.
   **   ~~~   ** Demand-to-Supply interface energy check value iteration history trace: 1695.926484,1695.926484,1695.926484,1695.926484,1695.926484,1695.926483,1695.926483,1695.926483,1695.926483,1695.926483,
   **   ~~~   ** Supply-to-demand interface deck 1 energy check value iteration history trace: 2615.420837,2615.420837,2615.420837,2615.420836,2615.420836,2615.420836,2615.420836,2615.420836,2615.420835,2615.420835,
   ** Warning ** SimHVAC: Maximum iterations (20) exceeded for all HVAC loops, at ANNUAL, 01/18 17:10 - 17:15
   **   ~~~   ** The solution for one or more of the Air Loop HVAC systems did not appear to converge
   **   ~~~   ** Air System Named = CENTRAL SYSTEM did not converge for mass flow rate
   **   ~~~   ** Check values should be zero. Most Recent values listed first.
   **   ~~~   ** Demand-to-Supply interface mass flow rate check value iteration history trace: 8.972574E-002,8.972574E-002,8.972574E-002,8.972574E-002,8.972574E-002,8.972574E-002,8.972574E-002,8.972574E-002,8.972574E-002,8.972574E-002,
   **   ~~~   ** Supply-to-demand interface deck 1 mass flow rate check value iteration history trace: 8.972574E-002,8.972574E-002,8.972574E-002,8.972574E-002,8.972574E-002,8.972574E-002,8.972574E-002,8.972574E-002,8.972574E-002,8.972574E-002,
   **   ~~~   ** Air System Named = CENTRAL SYSTEM did not converge for energy
   **   ~~~   ** Check values should be zero. Most Recent values listed first.
   **   ~~~   ** Demand-to-Supply interface energy check value iteration history trace: 1768.766998,1768.766998,1768.766998,1768.766998,1768.766998,1768.766998,1768.766998,1768.766998,1768.766998,1768.766997,
   **   ~~~   ** Supply-to-demand interface deck 1 energy check value iteration history trace: 2716.819813,2716.819813,2716.819813,2716.819813,2716.819813,2716.819813,2716.819812,2716.819812,2716.819812,2716.819812,
   ** Warning ** SimHVAC: Maximum iterations (20) exceeded for all HVAC loops, at ANNUAL, 01/19 20:15 - 20:30
   **   ~~~   ** The solution for one or more of the Air Loop HVAC systems did not appear to converge
   **   ~~~   ** Air System Named = CENTRAL SYSTEM did not converge for mass flow rate
   **   ~~~   ** Check values should be zero. Most Recent values listed first.
   **   ~~~   ** Demand-to-Supply interface mass flow rate check value iteration history trace: 0.110660,0.110660,0.110660,0.110660,0.110660,0.110660,0.110660,0.110660,0.110660,0.110660,
   **   ~~~   ** Supply-to-demand interface deck 1 mass flow rate check value iteration history trace: 0.110660,0.110660,0.110660,0.110660,0.110660,0.110660,0.110660,0.110660,0.110660,0.110660,
   **   ~~~   ** Air System Named = CENTRAL SYSTEM did not converge for energy
   **   ~~~   ** Check values should be zero. Most Recent values listed first.
   **   ~~~   ** Demand-to-Supply interface energy check value iteration history trace: 2163.747376,2163.747376,2163.747376,2163.747376,2163.747376,2163.747376,2163.747376,2163.747375,2163.747375,2163.747375,
   **   ~~~   ** Supply-to-demand interface deck 1 energy check value iteration history trace: 3315.852013,3315.852013,3315.852013,3315.852012,3315.852012,3315.852012,3315.852012,3315.852012,3315.852011,3315.852011,
   ** Warning ** SimHVAC: Maximum iterations (20) exceeded for all HVAC loops, at ANNUAL, 02/09 22:23 - 22:30
   **   ~~~   ** The solution for one or more of the Air Loop HVAC systems did not appear to converge
   **   ~~~   ** Air System Named = CENTRAL SYSTEM did not converge for mass flow rate
   **   ~~~   ** Check values should be zero. Most Recent values listed first.
   **   ~~~   ** Demand-to-Supply interface mass flow rate check value iteration history trace: 8.648508E-002,8.648508E-002,8.648508E-002,8.648508E-002,8.648508E-002,8.648508E-002,8.648508E-002,8.648508E-002,8.648508E-002,8.648508E-002,
   **   ~~~   ** Supply-to-demand interface deck 1 mass flow rate check value iteration history trace: 8.648508E-002,8.648508E-002,8.648508E-002,8.648508E-002,8.648508E-002,8.648508E-002,8.648508E-002,8.648508E-002,8.648508E-002,8.648508E-002,
   **   ~~~   ** Air System Named = CENTRAL SYSTEM did not converge for energy
   **   ~~~   ** Check values should be zero. Most Recent values listed first.
   **   ~~~   ** Demand-to-Supply interface energy check value iteration history trace: 1601.161597,1601.161597,1601.161597,1601.161597,1601.161597,1601.161597,1601.161597,1601.161597,1601.161596,1601.161596,
   **   ~~~   ** Supply-to-demand interface deck 1 energy check value iteration history trace: 2512.804493,2512.804493,2512.804493,2512.804493,2512.804493,2512.804492,2512.804492,2512.804492,2512.804492,2512.804492,
   ** Warning ** SimHVAC: Maximum iterations (20) exceeded for all HVAC loops, at ANNUAL, 02/18 09:00 - 09:15
   **   ~~~   ** The solution for one or more of the Air Loop HVAC systems did not appear to converge
   **   ~~~   ** Air System Named = CENTRAL SYSTEM did not converge for mass flow rate
   **   ~~~   ** Check values should be zero. Most Recent values listed first.
   **   ~~~   ** Demand-to-Supply interface mass flow rate check value iteration history trace: 6.452725E-002,6.452725E-002,6.452725E-002,6.452725E-002,6.452725E-002,6.452725E-002,6.452725E-002,6.452725E-002,6.452725E-002,6.452725E-002,
   **   ~~~   ** Supply-to-demand interface deck 1 mass flow rate check value iteration history trace: 6.452725E-002,6.452725E-002,6.452725E-002,6.452725E-002,6.452725E-002,6.452725E-002,6.452725E-002,6.452725E-002,6.452725E-002,6.452725E-002,
   **   ~~~   ** Air System Named = CENTRAL SYSTEM did not converge for energy
   **   ~~~   ** Check values should be zero. Most Recent values listed first.
   **   ~~~   ** Demand-to-Supply interface energy check value iteration history trace: 1279.964598,1279.964598,1279.964598,1279.964598,1279.964598,1279.964598,1279.964598,1279.964597,1279.964597,1279.964597,
   **   ~~~   ** Supply-to-demand interface deck 1 energy check value iteration history trace: 2340.317012,2340.317012,2340.317012,2340.317012,2340.317012,2340.317012,2340.317012,2340.317012,2340.317012,2340.317011,
   ** Warning ** SimHVAC: Maximum iterations (20) exceeded for all HVAC loops, at ANNUAL, 03/30 10:00 - 10:05
   **   ~~~   ** The solution for one or more of the Air Loop HVAC systems did not appear to converge
   **   ~~~   ** Air System Named = CENTRAL SYSTEM did not converge for mass flow rate
   **   ~~~   ** Check values should be zero. Most Recent values listed first.
   **   ~~~   ** Demand-to-Supply interface mass flow rate check value iteration history trace: 6.759546E-002,6.759546E-002,6.759546E-002,6.759546E-002,6.759546E-002,6.759546E-002,6.759546E-002,6.759546E-002,6.759546E-002,6.759546E-002,
   **   ~~~   ** Supply-to-demand interface deck 1 mass flow rate check value iteration history trace: 6.759546E-002,6.759546E-002,6.759546E-002,6.759546E-002,6.759546E-002,6.759546E-002,6.759546E-002,6.759546E-002,6.759546E-002,6.759546E-002,
   **   ~~~   ** Air System Named = CENTRAL SYSTEM did not converge for energy
   **   ~~~   ** Check values should be zero. Most Recent values listed first.
   **   ~~~   ** Demand-to-Supply interface energy check value iteration history trace: 1339.468903,1339.468903,1339.468903,1339.468902,1339.468902,1339.468902,1339.468902,1339.468902,1339.468902,1339.468902,
   **   ~~~   ** Supply-to-demand interface deck 1 energy check value iteration history trace: 2423.793286,2423.793286,2423.793286,2423.793286,2423.793285,2423.793285,2423.793285,2423.793285,2423.793285,2423.793285,
   ** Warning ** SimHVAC: Maximum iterations (20) exceeded for all HVAC loops, at ANNUAL, 04/08 10:30 - 10:45
   **   ~~~   ** The solution for one or more of the Air Loop HVAC systems did not appear to converge
   **   ~~~   ** Air System Named = CENTRAL SYSTEM did not converge for mass flow rate
   **   ~~~   ** Check values should be zero. Most Recent values listed first.
   **   ~~~   ** Demand-to-Supply interface mass flow rate check value iteration history trace: 5.226406E-002,5.226406E-002,5.226406E-002,5.226406E-002,5.226406E-002,5.226406E-002,5.226406E-002,5.226406E-002,5.226406E-002,5.226406E-002,
   **   ~~~   ** Supply-to-demand interface deck 1 mass flow rate check value iteration history trace: 5.226406E-002,5.226406E-002,5.226406E-002,5.226406E-002,5.226406E-002,5.226406E-002,5.226406E-002,5.226406E-002,5.226406E-002,5.226406E-002,
   **   ~~~   ** Air System Named = CENTRAL SYSTEM did not converge for energy
   **   ~~~   ** Check values should be zero. Most Recent values listed first.
   **   ~~~   ** Demand-to-Supply interface energy check value iteration history trace: 1017.422882,1017.422882,1017.422882,1017.422882,1017.422882,1017.422882,1017.422882,1017.422882,1017.422882,1017.422882,
   **   ~~~   ** Supply-to-demand interface deck 1 energy check value iteration history trace: 1830.439685,1830.439685,1830.439685,1830.439685,1830.439685,1830.439685,1830.439685,1830.439685,1830.439685,1830.439685,
   ** Warning ** SimHVAC: Maximum iterations (20) exceeded for all HVAC loops, at ANNUAL, 04/21 07:15 - 07:30
   **   ~~~   ** The solution for one or more of the Air Loop HVAC systems did not appear to converge
   **   ~~~   ** Air System Named = CENTRAL SYSTEM did not converge for mass flow rate
   **   ~~~   ** Check values should be zero. Most Recent values listed first.
   **   ~~~   ** Demand-to-Supply interface mass flow rate check value iteration history trace: 5.646341E-002,5.646341E-002,5.646341E-002,5.646341E-002,5.646341E-002,5.646341E-002,5.646341E-002,5.646341E-002,5.646341E-002,5.646341E-002,
   **   ~~~   ** Supply-to-demand interface deck 1 mass flow rate check value iteration history trace: 5.646341E-002,5.646341E-002,5.646341E-002,5.646341E-002,5.646341E-002,5.646341E-002,5.646341E-002,5.646341E-002,5.646341E-002,5.646341E-002,
   **   ~~~   ** Air System Named = CENTRAL SYSTEM did not converge for energy
   **   ~~~   ** Check values should be zero. Most Recent values listed first.
   **   ~~~   ** Demand-to-Supply interface energy check value iteration history trace: 1109.511388,1109.511388,1109.511388,1109.511388,1109.511388,1109.511388,1109.511388,1109.511387,1109.511387,1109.511387,
   **   ~~~   ** Supply-to-demand interface deck 1 energy check value iteration history trace: 1924.029613,1924.029613,1924.029613,1924.029613,1924.029613,1924.029612,1924.029612,1924.029612,1924.029612,1924.029612,
   ** Warning ** SimHVAC: Maximum iterations (20) exceeded for all HVAC loops, at ANNUAL, 04/21 07:45 - 08:00
   **   ~~~   ** The solution for one or more of the Air Loop HVAC systems did not appear to converge
   **   ~~~   ** Air System Named = CENTRAL SYSTEM did not converge for mass flow rate
   **   ~~~   ** Check values should be zero. Most Recent values listed first.
   **   ~~~   ** Demand-to-Supply interface mass flow rate check value iteration history trace: 5.786797E-002,5.786797E-002,5.786797E-002,5.786797E-002,5.786797E-002,5.786797E-002,5.786797E-002,5.786797E-002,5.786797E-002,5.786797E-002,
   **   ~~~   ** Supply-to-demand interface deck 1 mass flow rate check value iteration history trace: 5.786797E-002,5.786797E-002,5.786797E-002,5.786797E-002,5.786797E-002,5.786797E-002,5.786797E-002,5.786797E-002,5.786797E-002,5.786797E-002,
   **   ~~~   ** Air System Named = CENTRAL SYSTEM did not converge for energy
   **   ~~~   ** Check values should be zero. Most Recent values listed first.
   **   ~~~   ** Demand-to-Supply interface energy check value iteration history trace: 1135.784457,1135.784457,1135.784457,1135.784457,1135.784457,1135.784457,1135.784457,1135.784457,1135.784457,1135.784457,
   **   ~~~   ** Supply-to-demand interface deck 1 energy check value iteration history trace: 1982.043735,1982.043735,1982.043735,1982.043734,1982.043734,1982.043734,1982.043734,1982.043734,1982.043734,1982.043734,
   ** Warning ** SimHVAC: Maximum iterations (20) exceeded for all HVAC loops, at ANNUAL, 04/24 08:25 - 08:30
   **   ~~~   ** The solution for one or more of the Air Loop HVAC systems did not appear to converge
   **   ~~~   ** Air System Named = CENTRAL SYSTEM did not converge for mass flow rate
   **   ~~~   ** Check values should be zero. Most Recent values listed first.
   **   ~~~   ** Demand-to-Supply interface mass flow rate check value iteration history trace: 6.019080E-002,6.019080E-002,6.019080E-002,6.019080E-002,6.019080E-002,6.019080E-002,6.019080E-002,6.019080E-002,6.019080E-002,6.019080E-002,
   **   ~~~   ** Supply-to-demand interface deck 1 mass flow rate check value iteration history trace: 6.019080E-002,6.019080E-002,6.019080E-002,6.019080E-002,6.019080E-002,6.019080E-002,6.019080E-002,6.019080E-002,6.019080E-002,6.019080E-002,
   **   ~~~   ** Air System Named = CENTRAL SYSTEM did not converge for energy
   **   ~~~   ** Check values should be zero. Most Recent values listed first.
   **   ~~~   ** Demand-to-Supply interface energy check value iteration history trace: 1191.549275,1191.549275,1191.549275,1191.549275,1191.549275,1191.549275,1191.549275,1191.549274,1191.549274,1191.549274,
   **   ~~~   ** Supply-to-demand interface deck 1 energy check value iteration history trace: 2075.623063,2075.623063,2075.623063,2075.623063,2075.623063,2075.623063,2075.623063,2075.623062,2075.623062,2075.623062,
   ** Warning ** SimHVAC: Maximum iterations (20) exceeded for all HVAC loops, at ANNUAL, 04/26 10:30 - 10:35
   **   ~~~   ** The solution for one or more of the Air Loop HVAC systems did not appear to converge
   **   ~~~   ** Air System Named = CENTRAL SYSTEM did not converge for mass flow rate
   **   ~~~   ** Check values should be zero. Most Recent values listed first.
   **   ~~~   ** Demand-to-Supply interface mass flow rate check value iteration history trace: 5.598598E-002,5.598598E-002,5.598598E-002,5.598598E-002,5.598598E-002,5.598598E-002,5.598598E-002,5.598598E-002,5.598598E-002,5.598598E-002,
   **   ~~~   ** Supply-to-demand interface deck 1 mass flow rate check value iteration history trace: 5.598598E-002,5.598598E-002,5.598598E-002,5.598598E-002,5.598598E-002,5.598598E-002,5.598598E-002,5.598598E-002,5.598598E-002,5.598598E-002,
   **   ~~~   ** Air System Named = CENTRAL SYSTEM did not converge for energy
   **   ~~~   ** Check values should be zero. Most Recent values listed first.
   **   ~~~   ** Demand-to-Supply interface energy check value iteration history trace: 1101.544798,1101.544798,1101.544798,1101.544798,1101.544798,1101.544798,1101.544798,1101.544798,1101.544798,1101.544798,
   **   ~~~   ** Supply-to-demand interface deck 1 energy check value iteration history trace: 1958.336614,1958.336614,1958.336614,1958.336614,1958.336613,1958.336613,1958.336613,1958.336613,1958.336613,1958.336613,
   ************* Simulation Error Summary *************
   ** Warning ** The following Report Variables were requested but not generated -- check.rdd file
   **   ~~~   ** Either the IDF did not contain these elements, the variable name is misspelled,
   **   ~~~   ** or the requested variable is an advanced output which requires Output : Diagnostics, DisplayAdvancedReportVariables;
   ************* Key=*, VarName=BASEBOARD TOTAL HEATING ENERGY, Frequency=
   ************* Key=*, VarName=WATER HEATER NATURALGAS ENERGY, Frequency=
   ************* Key=*, VarName=COOLING COIL TOTAL HEATING ENERGY, Frequency=
   ************* There are 34 unused schedules in input.
   ************* There are 388 unused week schedules in input.
   ************* There are 396 unused day schedules in input.
   ************* Use Output:Diagnostics,DisplayUnusedSchedules; to see them.
   *************
   ************* ===== Recurring Error Summary =====
   ************* The following recurring error messages occurred.
   *************
   *************  ** Warning ** "TOTAL HOT WATER LOAD" - Target water temperature should be less than or equal to the hot water temperature error continues...
   *************  **   ~~~   **   This error occurred 157607 total times;
   *************  **   ~~~   **   during Warmup 0 times;
   *************  **   ~~~   **   during Sizing 0 times.
   *************  **   ~~~   **   Max=12.19622  Min=1.471740E-003
   *************
   *************  ** Warning ** SimHVAC: Exceeding Maximum iterations for all HVAC loops, during ANNUAL continues
   *************  **   ~~~   **   This error occurred 13 total times;
   *************  **   ~~~   **   during Warmup 0 times;
   *************  **   ~~~   **   during Sizing 0 times.
   *************
   *************
   ************* ===== Final Error Summary =====
   ************* The following error categories occurred.  Consider correcting or noting.
   ************* Nominally Unused Constructions
   ************* ..The nominally unused constructions warning is provided to alert you to potential conditions that can cause
   ************* ..extra time during simulation. Each construction is calculated by the algorithm indicated in the HeatBalanceAlgorithm
   ************* ..object. You may remove the constructions indicated (when you use the DisplayExtraWarnings option).
   *************
   ************* EnergyPlus Warmup Error Summary. During Warmup: 1 Warning; 0 Severe Errors.
   ************* EnergyPlus Sizing Error Summary. During Sizing: 4 Warning; 0 Severe Errors.
   ************* EnergyPlus Completed Successfully-- 157651 Warning; 0 Severe Errors; Elapsed Time=00hr 01min 35.06sec
