Program Version,EnergyPlus, Version 22.2.0-c249759bad, YMD=2023.09.01 15:08,
   ************* Beginning Zone Sizing Calculations
   ** Warning ** ProcessScheduleInput: Schedule:Constant="ALWAYS ON DISCRETE", Schedule Type Limits Name="ONOFF" not found -- will not be validated
   ** Warning ** Foundation:Kiva="KIVA FOUNDATION", no Interior Horizontal Insulation Material Name defined
   **   ~~~   ** Interior Horizontal Insulation Depth will not be used.
   ** Warning ** CheckUsedConstructions: There are 15 nominally unused constructions in input.
   **   ~~~   ** Each Unused construction is shown.
   ************* Construction=INTERIOR FLOOR
   ************* Construction=INTERIOR WINDOW
   ************* Construction=EXTERIOR DOOR
   ************* Construction=INTERIOR DOOR
   ************* Construction=GABLE CONSTRUCTION
   ************* Construction=CRAWL_FLOOR
   ************* Construction=INSULATED PIPE
   ************* Construction=PLAIN PIPE
   ************* Construction=TDD PIPE
   ************* Construction=TDD DOME
   ************* Construction=TDD DIFFUSER
   ************* Construction=CRAWL WALL
   ************* Construction=CEILING-FLOOR-LAYER
   ************* Construction=SLAB CONSTRUCTION W FULL R10 INSULATION
   ************* Construction=SLAB CONSTRUCTION W FULL R5 INSULATION
   ** Warning ** GetDXCoils: Coil:Heating:DX:SingleSpeed="DX_HEATING_COIL" curve values
   **   ~~~   ** ... Defrost Energy Input Ratio Function of Temperature Curve Name = DEFROSTEIR output is not equal to 1.0 (+ or - 10%) at rated conditions.
   **   ~~~   ** ... Curve output at rated conditions = 0.152
   ************* Beginning System Sizing Calculations
   ************* Beginning Plant Sizing Calculations
   ** Warning ** SizeDXCoil Coil:Cooling:DX:SingleSpeed DX_COOLING_COIL
   **   ~~~   ** ...Gross Rated Total Cooling Capacity [W] will be limited by the maximum rated volume flow per rated total capacity ratio.
   **   ~~~   ** ...DX coil volume flow rate ( m3/s ) = 0.368483
   **   ~~~   ** ...Requested capacity ( W ) = 6096.853
   **   ~~~   ** ...Requested flow/capacity ratio ( m3/s/W ) = 6.043E-005
   **   ~~~   ** ...Maximum flow/capacity ratio ( m3/s/W ) = 6.041E-005
   **   ~~~   ** ...Adjusted capacity ( W ) = 6099.711
   ** Warning ** Coil:WaterHeating:AirToWaterHeatPump:Wrapped "HEAT PUMP WATER HEATER EVAPORATOR": Rated air volume flow rate per watt of rated total water heating capacity is out of range
   **   ~~~   ** Min Rated Vol Flow Per Watt=[4.027E-005], Rated Vol Flow Per Watt=[1.386E-004], Max Rated Vol Flow Per Watt=[8.056E-005]. See Input-Output Reference Manual for valid range.
   ** Warning ** Water heater = WATER HEATER TANK:  Recovery Efficiency and Energy Factor could not be calculated during the test for standard ratings
   **   ~~~   ** Setpoint was never recovered and/or heater never turned on
   ** Warning ** Check input. Pump nominal power or motor efficiency is set to 0, for pump=MAINS PRESSURE
   ** Warning ** Output:Meter: invalid Key Name="ELECTRIC_RANGE:INTERIOREQUIPMENT:ELECTRICITY" - not found.
   ** Warning ** Output:Meter: invalid Key Name="ELECTRIC_DRYER:INTERIOREQUIPMENT:ELECTRICITY" - not found.
   ** Warning ** Output:Meter: invalid Key Name="HEATRECOVERY:ELECTRICITY" - not found.
   ** Warning ** Output:Meter: invalid Key Name="HEATING:NATURALGAS" - not found.
   ** Warning ** Output:Meter: invalid Key Name="WATERSYSTEMS:NATURALGAS" - not found.
   ** Warning ** Output:Meter: invalid Key Name="PROPANE:FACILITY" - not found.
   ** Warning ** Output:Meter: invalid Key Name="HEATING:PROPANE" - not found.
   ************* Testing Individual Branch Integrity
   ************* All Branches passed integrity testing
   ************* Testing Individual Supply Air Path Integrity
   ************* All Supply Air Paths passed integrity testing
   ************* Testing Individual Return Air Path Integrity
   ************* All Return Air Paths passed integrity testing
   ************* No node connection errors were found.
   ************* Beginning Simulation
   ** Warning ** AirflowNetwork::Solver::validate_distribution: Heat pump water heater is simulated along with an AirflowNetwork but is not included in the AirflowNetwork.
   ** Warning ** CalcEquipmentFlowRates: "TOTAL HOT WATER LOAD" - Target water temperature is greater than the hot water temperature by (1.65 C)
   **   ~~~   **  Environment=EXTREME_WINTER, at Simulation time=01/08 06:00 - 06:15
   **   ~~~   ** ...target water temperature     = 53.33 C
   **   ~~~   ** ...hot water temperature        = 51.68 C
   **   ~~~   ** ...Target water temperature should be less than or equal to the hot water temperature. Verify temperature setpoints and schedules.
   ** Warning ** SimHVAC: Maximum iterations (20) exceeded for all HVAC loops, at ANNUAL, 01/21 11:15 - 11:30
   **   ~~~   ** The solution for one or more of the Air Loop HVAC systems did not appear to converge
   **   ~~~   ** Air System Named = CENTRAL SYSTEM did not converge for mass flow rate
   **   ~~~   ** Check values should be zero. Most Recent values listed first.
   **   ~~~   ** Demand-to-Supply interface mass flow rate check value iteration history trace: 8.556602E-002,8.556602E-002,8.556602E-002,8.556602E-002,8.556602E-002,8.556602E-002,8.556602E-002,8.556602E-002,8.556602E-002,8.556602E-002,
   **   ~~~   ** Supply-to-demand interface deck 1 mass flow rate check value iteration history trace: 8.556602E-002,8.556602E-002,8.556602E-002,8.556602E-002,8.556602E-002,8.556602E-002,8.556602E-002,8.556602E-002,8.556602E-002,8.556602E-002,
   **   ~~~   ** Air System Named = CENTRAL SYSTEM did not converge for energy
   **   ~~~   ** Check values should be zero. Most Recent values listed first.
   **   ~~~   ** Demand-to-Supply interface energy check value iteration history trace: 1695.640164,1695.640163,1695.640163,1695.640163,1695.640163,1695.640163,1695.640163,1695.640163,1695.640163,1695.640163,
   **   ~~~   ** Supply-to-demand interface deck 1 energy check value iteration history trace: 2624.072768,2624.072768,2624.072768,2624.072767,2624.072767,2624.072767,2624.072767,2624.072767,2624.072767,2624.072766,
   ** Warning ** SimHVAC: Maximum iterations (20) exceeded for all HVAC loops, at ANNUAL, 02/25 11:15 - 11:30
   **   ~~~   ** The solution for one or more of the Air Loop HVAC systems did not appear to converge
   **   ~~~   ** Air System Named = CENTRAL SYSTEM did not converge for mass flow rate
   **   ~~~   ** Check values should be zero. Most Recent values listed first.
   **   ~~~   ** Demand-to-Supply interface mass flow rate check value iteration history trace: 8.242529E-002,8.242529E-002,8.242529E-002,8.242529E-002,8.242529E-002,8.242529E-002,8.242529E-002,8.242529E-002,8.242529E-002,8.242529E-002,
   **   ~~~   ** Supply-to-demand interface deck 1 mass flow rate check value iteration history trace: 8.242529E-002,8.242529E-002,8.242529E-002,8.242529E-002,8.242529E-002,8.242529E-002,8.242529E-002,8.242529E-002,8.242529E-002,8.242529E-002,
   **   ~~~   ** Air System Named = CENTRAL SYSTEM did not converge for energy
   **   ~~~   ** Check values should be zero. Most Recent values listed first.
   **   ~~~   ** Demand-to-Supply interface energy check value iteration history trace: 1633.451611,1633.451611,1633.451610,1633.451610,1633.451610,1633.451610,1633.451610,1633.451610,1633.451610,1633.451610,
   **   ~~~   ** Supply-to-demand interface deck 1 energy check value iteration history trace: 2520.541342,2520.541342,2520.541342,2520.541342,2520.541341,2520.541341,2520.541341,2520.541341,2520.541341,2520.541341,
   ** Warning ** SimHVAC: Maximum iterations (20) exceeded for all HVAC loops, at ANNUAL, 02/26 22:38 - 22:45
   **   ~~~   ** The solution for one or more of the Air Loop HVAC systems did not appear to converge
   **   ~~~   ** Air System Named = CENTRAL SYSTEM did not converge for mass flow rate
   **   ~~~   ** Check values should be zero. Most Recent values listed first.
   **   ~~~   ** Demand-to-Supply interface mass flow rate check value iteration history trace: 8.357227E-002,8.357227E-002,8.357227E-002,8.357227E-002,8.357227E-002,8.357227E-002,8.357227E-002,8.357227E-002,8.357227E-002,8.357227E-002,
   **   ~~~   ** Supply-to-demand interface deck 1 mass flow rate check value iteration history trace: 8.357227E-002,8.357227E-002,8.357227E-002,8.357227E-002,8.357227E-002,8.357227E-002,8.357227E-002,8.357227E-002,8.357227E-002,8.357227E-002,
   **   ~~~   ** Air System Named = CENTRAL SYSTEM did not converge for energy
   **   ~~~   ** Check values should be zero. Most Recent values listed first.
   **   ~~~   ** Demand-to-Supply interface energy check value iteration history trace: 1563.214426,1563.214426,1563.214426,1563.214426,1563.214426,1563.214426,1563.214426,1563.214426,1563.214425,1563.214425,
   **   ~~~   ** Supply-to-demand interface deck 1 energy check value iteration history trace: 2415.799490,2415.799490,2415.799490,2415.799489,2415.799489,2415.799489,2415.799489,2415.799489,2415.799489,2415.799489,
   ** Warning ** SimHVAC: Maximum iterations (20) exceeded for all HVAC loops, at ANNUAL, 03/06 19:30 - 19:45
   **   ~~~   ** The solution for one or more of the Air Loop HVAC systems did not appear to converge
   **   ~~~   ** Air System Named = CENTRAL SYSTEM did not converge for mass flow rate
   **   ~~~   ** Check values should be zero. Most Recent values listed first.
   **   ~~~   ** Demand-to-Supply interface mass flow rate check value iteration history trace: 0.110962,0.110962,0.110962,0.110962,0.110962,0.110962,0.110962,0.110962,0.110962,0.110962,
   **   ~~~   ** Supply-to-demand interface deck 1 mass flow rate check value iteration history trace: 0.110962,0.110962,0.110962,0.110962,0.110962,0.110962,0.110962,0.110962,0.110962,0.110962,
   **   ~~~   ** Air System Named = CENTRAL SYSTEM did not converge for energy
   **   ~~~   ** Check values should be zero. Most Recent values listed first.
   **   ~~~   ** Demand-to-Supply interface energy check value iteration history trace: 2195.157229,2195.157229,2195.157229,2195.157229,2195.157229,2195.157228,2195.157228,2195.157228,2195.157228,2195.157228,
   **   ~~~   ** Supply-to-demand interface deck 1 energy check value iteration history trace: 3418.832879,3418.832879,3418.832879,3418.832879,3418.832879,3418.832878,3418.832878,3418.832878,3418.832878,3418.832878,
   ** Warning ** SimHVAC: Maximum iterations (20) exceeded for all HVAC loops, at ANNUAL, 03/12 10:26 - 10:30
   **   ~~~   ** The solution for one or more of the Air Loop HVAC systems did not appear to converge
   **   ~~~   ** Air System Named = CENTRAL SYSTEM did not converge for mass flow rate
   **   ~~~   ** Check values should be zero. Most Recent values listed first.
   **   ~~~   ** Demand-to-Supply interface mass flow rate check value iteration history trace: 9.346458E-002,9.346458E-002,9.346458E-002,9.346458E-002,9.346458E-002,9.346458E-002,9.346458E-002,9.346458E-002,9.346458E-002,9.346458E-002,
   **   ~~~   ** Supply-to-demand interface deck 1 mass flow rate check value iteration history trace: 9.346458E-002,9.346458E-002,9.346458E-002,9.346458E-002,9.346458E-002,9.346458E-002,9.346458E-002,9.346458E-002,9.346458E-002,9.346458E-002,
   **   ~~~   ** Air System Named = CENTRAL SYSTEM did not converge for energy
   **   ~~~   ** Check values should be zero. Most Recent values listed first.
   **   ~~~   ** Demand-to-Supply interface energy check value iteration history trace: 1846.953306,1846.953306,1846.953306,1846.953306,1846.953306,1846.953305,1846.953305,1846.953305,1846.953305,1846.953305,
   **   ~~~   ** Supply-to-demand interface deck 1 energy check value iteration history trace: 3098.116047,3098.116047,3098.116047,3098.116047,3098.116046,3098.116046,3098.116046,3098.116046,3098.116046,3098.116046,
   ** Warning ** SimHVAC: Maximum iterations (20) exceeded for all HVAC loops, at ANNUAL, 04/08 19:45 - 20:00
   **   ~~~   ** The solution for one or more of the Air Loop HVAC systems did not appear to converge
   **   ~~~   ** Air System Named = CENTRAL SYSTEM did not converge for mass flow rate
   **   ~~~   ** Check values should be zero. Most Recent values listed first.
   **   ~~~   ** Demand-to-Supply interface mass flow rate check value iteration history trace: 6.713633E-002,6.713633E-002,6.713633E-002,6.713633E-002,6.713633E-002,6.713633E-002,6.713633E-002,6.713633E-002,6.713633E-002,6.713633E-002,
   **   ~~~   ** Supply-to-demand interface deck 1 mass flow rate check value iteration history trace: 6.713633E-002,6.713633E-002,6.713633E-002,6.713633E-002,6.713633E-002,6.713633E-002,6.713633E-002,6.713633E-002,6.713633E-002,6.713633E-002,
   **   ~~~   ** Air System Named = CENTRAL SYSTEM did not converge for energy
   **   ~~~   ** Check values should be zero. Most Recent values listed first.
   **   ~~~   ** Demand-to-Supply interface energy check value iteration history trace: 1319.621358,1319.621358,1319.621358,1319.621358,1319.621358,1319.621358,1319.621358,1319.621358,1319.621358,1319.621358,
   **   ~~~   ** Supply-to-demand interface deck 1 energy check value iteration history trace: 2257.556750,2257.556750,2257.556750,2257.556749,2257.556749,2257.556749,2257.556749,2257.556749,2257.556749,2257.556749,
   ** Warning ** SimHVAC: Maximum iterations (20) exceeded for all HVAC loops, at ANNUAL, 04/09 10:33 - 10:36
   **   ~~~   ** The solution for one or more of the Air Loop HVAC systems did not appear to converge
   **   ~~~   ** Air System Named = CENTRAL SYSTEM did not converge for mass flow rate
   **   ~~~   ** Check values should be zero. Most Recent values listed first.
   **   ~~~   ** Demand-to-Supply interface mass flow rate check value iteration history trace: 8.405574E-002,8.405574E-002,8.405574E-002,8.405574E-002,8.405574E-002,8.405574E-002,8.405574E-002,8.405574E-002,8.405574E-002,8.405574E-002,
   **   ~~~   ** Supply-to-demand interface deck 1 mass flow rate check value iteration history trace: 8.405574E-002,8.405574E-002,8.405574E-002,8.405574E-002,8.405574E-002,8.405574E-002,8.405574E-002,8.405574E-002,8.405574E-002,8.405574E-002,
   **   ~~~   ** Air System Named = CENTRAL SYSTEM did not converge for energy
   **   ~~~   ** Check values should be zero. Most Recent values listed first.
   **   ~~~   ** Demand-to-Supply interface energy check value iteration history trace: 1661.522091,1661.522091,1661.522091,1661.522090,1661.522090,1661.522090,1661.522090,1661.522090,1661.522090,1661.522090,
   **   ~~~   ** Supply-to-demand interface deck 1 energy check value iteration history trace: 2915.488943,2915.488942,2915.488942,2915.488942,2915.488942,2915.488942,2915.488942,2915.488942,2915.488942,2915.488941,
   ** Warning ** SimHVAC: Maximum iterations (20) exceeded for all HVAC loops, at ANNUAL, 04/15 10:21 - 10:24
   **   ~~~   ** The solution for one or more of the Air Loop HVAC systems did not appear to converge
   **   ~~~   ** Air System Named = CENTRAL SYSTEM did not converge for mass flow rate
   **   ~~~   ** Check values should be zero. Most Recent values listed first.
   **   ~~~   ** Demand-to-Supply interface mass flow rate check value iteration history trace: 7.390930E-002,7.390930E-002,7.390930E-002,7.390930E-002,7.390930E-002,7.390930E-002,7.390930E-002,7.390930E-002,7.390930E-002,7.390930E-002,
   **   ~~~   ** Supply-to-demand interface deck 1 mass flow rate check value iteration history trace: 7.390930E-002,7.390930E-002,7.390930E-002,7.390930E-002,7.390930E-002,7.390930E-002,7.390930E-002,7.390930E-002,7.390930E-002,7.390930E-002,
   **   ~~~   ** Air System Named = CENTRAL SYSTEM did not converge for energy
   **   ~~~   ** Check values should be zero. Most Recent values listed first.
   **   ~~~   ** Demand-to-Supply interface energy check value iteration history trace: 1454.946576,1454.946576,1454.946576,1454.946576,1454.946576,1454.946576,1454.946575,1454.946575,1454.946575,1454.946575,
   **   ~~~   ** Supply-to-demand interface deck 1 energy check value iteration history trace: 2520.558645,2520.558644,2520.558644,2520.558644,2520.558644,2520.558644,2520.558644,2520.558644,2520.558644,2520.558643,
   ** Warning ** SimHVAC: Maximum iterations (20) exceeded for all HVAC loops, at ANNUAL, 04/17 07:15 - 07:17
   **   ~~~   ** The solution for one or more of the Air Loop HVAC systems did not appear to converge
   **   ~~~   ** Air System Named = CENTRAL SYSTEM did not converge for mass flow rate
   **   ~~~   ** Check values should be zero. Most Recent values listed first.
   **   ~~~   ** Demand-to-Supply interface mass flow rate check value iteration history trace: 8.341726E-002,8.341726E-002,8.341726E-002,8.341726E-002,8.341726E-002,8.341726E-002,8.341726E-002,8.341726E-002,8.341726E-002,8.341726E-002,
   **   ~~~   ** Supply-to-demand interface deck 1 mass flow rate check value iteration history trace: 8.341726E-002,8.341726E-002,8.341726E-002,8.341726E-002,8.341726E-002,8.341726E-002,8.341726E-002,8.341726E-002,8.341726E-002,8.341726E-002,
   **   ~~~   ** Air System Named = CENTRAL SYSTEM did not converge for energy
   **   ~~~   ** Check values should be zero. Most Recent values listed first.
   **   ~~~   ** Demand-to-Supply interface energy check value iteration history trace: 1652.991652,1652.991651,1652.991651,1652.991651,1652.991651,1652.991651,1652.991651,1652.991651,1652.991651,1652.991651,
   **   ~~~   ** Supply-to-demand interface deck 1 energy check value iteration history trace: 2837.475789,2837.475789,2837.475789,2837.475789,2837.475789,2837.475789,2837.475789,2837.475789,2837.475788,2837.475788,
   ** Warning ** SimHVAC: Maximum iterations (20) exceeded for all HVAC loops, at ANNUAL, 04/29 10:00 - 10:15
   **   ~~~   ** The solution for one or more of the Air Loop HVAC systems did not appear to converge
   **   ~~~   ** Air System Named = CENTRAL SYSTEM did not converge for mass flow rate
   **   ~~~   ** Check values should be zero. Most Recent values listed first.
   **   ~~~   ** Demand-to-Supply interface mass flow rate check value iteration history trace: 6.921489E-002,6.921489E-002,6.921489E-002,6.921489E-002,6.921489E-002,6.921489E-002,6.921489E-002,6.921489E-002,6.921489E-002,6.921489E-002,
   **   ~~~   ** Supply-to-demand interface deck 1 mass flow rate check value iteration history trace: 6.921489E-002,6.921489E-002,6.921489E-002,6.921489E-002,6.921489E-002,6.921489E-002,6.921489E-002,6.921489E-002,6.921489E-002,6.921489E-002,
   **   ~~~   ** Air System Named = CENTRAL SYSTEM did not converge for energy
   **   ~~~   ** Check values should be zero. Most Recent values listed first.
   **   ~~~   ** Demand-to-Supply interface energy check value iteration history trace: 1371.576654,1371.576654,1371.576654,1371.576654,1371.576653,1371.576653,1371.576653,1371.576653,1371.576653,1371.576653,
   **   ~~~   ** Supply-to-demand interface deck 1 energy check value iteration history trace: 2414.610169,2414.610169,2414.610169,2414.610169,2414.610169,2414.610169,2414.610169,2414.610168,2414.610168,2414.610168,
   ** Warning ** SimHVAC: Maximum iterations (20) exceeded for all HVAC loops, at ANNUAL, 05/26 06:27 - 06:30
   **   ~~~   ** The solution for one or more of the Air Loop HVAC systems did not appear to converge
   **   ~~~   ** Air System Named = CENTRAL SYSTEM did not converge for mass flow rate
   **   ~~~   ** Check values should be zero. Most Recent values listed first.
   **   ~~~   ** Demand-to-Supply interface mass flow rate check value iteration history trace: 2.823055E-002,2.823055E-002,2.823055E-002,2.823055E-002,2.823055E-002,2.823055E-002,2.823055E-002,2.823055E-002,2.823055E-002,2.823055E-002,
   **   ~~~   ** Supply-to-demand interface deck 1 mass flow rate check value iteration history trace: 2.823055E-002,2.823055E-002,2.823055E-002,2.823055E-002,2.823055E-002,2.823055E-002,2.823055E-002,2.823055E-002,2.823055E-002,2.823055E-002,
   **   ~~~   ** Air System Named = CENTRAL SYSTEM did not converge for energy
   **   ~~~   ** Check values should be zero. Most Recent values listed first.
   **   ~~~   ** Demand-to-Supply interface energy check value iteration history trace: 662.603224,662.603224,662.603225,662.603225,662.603225,662.603225,662.603226,662.603226,662.603226,662.603226,
   **   ~~~   ** Supply-to-demand interface deck 1 energy check value iteration history trace: 373.905943,373.905943,373.905944,373.905944,373.905944,373.905944,373.905944,373.905944,373.905944,373.905944,
   ** Warning ** SimHVAC: Maximum iterations (20) exceeded for all HVAC loops, at ANNUAL, 10/04 07:30 - 07:45
   **   ~~~   ** The solution for one or more of the Air Loop HVAC systems did not appear to converge
   **   ~~~   ** Air System Named = CENTRAL SYSTEM did not converge for mass flow rate
   **   ~~~   ** Check values should be zero. Most Recent values listed first.
   **   ~~~   ** Demand-to-Supply interface mass flow rate check value iteration history trace: 6.647703E-002,6.647703E-002,6.647703E-002,6.647703E-002,6.647703E-002,6.647703E-002,6.647703E-002,6.647703E-002,6.647703E-002,6.647703E-002,
   **   ~~~   ** Supply-to-demand interface deck 1 mass flow rate check value iteration history trace: 6.647703E-002,6.647703E-002,6.647703E-002,6.647703E-002,6.647703E-002,6.647703E-002,6.647703E-002,6.647703E-002,6.647703E-002,6.647703E-002,
   **   ~~~   ** Air System Named = CENTRAL SYSTEM did not converge for energy
   **   ~~~   ** Check values should be zero. Most Recent values listed first.
   **   ~~~   ** Demand-to-Supply interface energy check value iteration history trace: 1300.336401,1300.336401,1300.336401,1300.336401,1300.336401,1300.336401,1300.336401,1300.336401,1300.336401,1300.336400,
   **   ~~~   ** Supply-to-demand interface deck 1 energy check value iteration history trace: 2282.148590,2282.148590,2282.148590,2282.148590,2282.148590,2282.148590,2282.148590,2282.148590,2282.148589,2282.148589,
   ** Warning ** SimHVAC: Maximum iterations (20) exceeded for all HVAC loops, at ANNUAL, 10/04 21:15 - 21:30
   **   ~~~   ** The solution for one or more of the Air Loop HVAC systems did not appear to converge
   **   ~~~   ** Air System Named = CENTRAL SYSTEM did not converge for mass flow rate
   **   ~~~   ** Check values should be zero. Most Recent values listed first.
   **   ~~~   ** Demand-to-Supply interface mass flow rate check value iteration history trace: 0.139854,0.139854,0.139854,0.139854,0.139854,0.139854,0.139854,0.139854,0.139854,0.139854,
   **   ~~~   ** Supply-to-demand interface deck 1 mass flow rate check value iteration history trace: 0.139854,0.139854,0.139854,0.139854,0.139854,0.139854,0.139854,0.139854,0.139854,0.139854,
   **   ~~~   ** Air System Named = CENTRAL SYSTEM did not converge for energy
   **   ~~~   ** Check values should be zero. Most Recent values listed first.
   **   ~~~   ** Demand-to-Supply interface energy check value iteration history trace: 3395.708801,3395.708801,3395.708801,3395.708801,3395.708802,3395.708802,3395.708802,3395.708802,3395.708803,3395.708803,
   **   ~~~   ** Supply-to-demand interface deck 1 energy check value iteration history trace: 1662.626485,1662.626485,1662.626485,1662.626485,1662.626485,1662.626485,1662.626485,1662.626485,1662.626485,1662.626486,
   ** Warning ** SimHVAC: Maximum iterations (20) exceeded for all HVAC loops, at ANNUAL, 10/15 11:35 - 11:40
   **   ~~~   ** The solution for one or more of the Air Loop HVAC systems did not appear to converge
   **   ~~~   ** Air System Named = CENTRAL SYSTEM did not converge for mass flow rate
   **   ~~~   ** Check values should be zero. Most Recent values listed first.
   **   ~~~   ** Demand-to-Supply interface mass flow rate check value iteration history trace: 0.284673,0.284673,0.284673,0.284673,0.284673,0.284673,0.284673,0.284673,0.284673,0.284673,
   **   ~~~   ** Supply-to-demand interface deck 1 mass flow rate check value iteration history trace: 0.284673,0.284673,0.284673,0.284673,0.284673,0.284673,0.284673,0.284673,0.284673,0.284673,
   **   ~~~   ** Air System Named = CENTRAL SYSTEM did not converge for energy
   **   ~~~   ** Check values should be zero. Most Recent values listed first.
   **   ~~~   ** Demand-to-Supply interface energy check value iteration history trace: 6789.499853,6789.499854,6789.499854,6789.499855,6789.499855,6789.499856,6789.499856,6789.499857,6789.499857,6789.499858,
   **   ~~~   ** Supply-to-demand interface deck 1 energy check value iteration history trace: 3212.366724,3212.366725,3212.366725,3212.366725,3212.366725,3212.366725,3212.366726,3212.366726,3212.366726,3212.366726,
   ************* Simulation Error Summary *************
   ** Warning ** The following Report Variables were requested but not generated -- check.rdd file
   **   ~~~   ** Either the IDF did not contain these elements, the variable name is misspelled,
   **   ~~~   ** or the requested variable is an advanced output which requires Output : Diagnostics, DisplayAdvancedReportVariables;
   ************* Key=*, VarName=BASEBOARD TOTAL HEATING ENERGY, Frequency=
   ************* Key=*, VarName=WATER HEATER NATURALGAS ENERGY, Frequency=
   ************* Key=*, VarName=COOLING COIL TOTAL HEATING ENERGY, Frequency=
   ************* There are 34 unused schedules in input.
   ************* There are 388 unused week schedules in input.
   ************* There are 396 unused day schedules in input.
   ************* Use Output:Diagnostics,DisplayUnusedSchedules; to see them.
   *************
   ************* ===== Recurring Error Summary =====
   ************* The following recurring error messages occurred.
   *************
   *************  ** Warning ** "TOTAL HOT WATER LOAD" - Target water temperature should be less than or equal to the hot water temperature error continues...
   *************  **   ~~~   **   This error occurred 98103 total times;
   *************  **   ~~~   **   during Warmup 0 times;
   *************  **   ~~~   **   during Sizing 0 times.
   *************  **   ~~~   **   Max=9.713252  Min=8.233893E-005
   *************
   *************  ** Warning ** SimHVAC: Exceeding Maximum iterations for all HVAC loops, during ANNUAL continues
   *************  **   ~~~   **   This error occurred 6 total times;
   *************  **   ~~~   **   during Warmup 0 times;
   *************  **   ~~~   **   during Sizing 0 times.
   *************
   *************
   ************* ===== Final Error Summary =====
   ************* The following error categories occurred.  Consider correcting or noting.
   ************* Nominally Unused Constructions
   ************* ..The nominally unused constructions warning is provided to alert you to potential conditions that can cause
   ************* ..extra time during simulation. Each construction is calculated by the algorithm indicated in the HeatBalanceAlgorithm
   ************* ..object. You may remove the constructions indicated (when you use the DisplayExtraWarnings option).
   *************
   ************* EnergyPlus Warmup Error Summary. During Warmup: 1 Warning; 0 Severe Errors.
   ************* EnergyPlus Sizing Error Summary. During Sizing: 4 Warning; 0 Severe Errors.
   ************* EnergyPlus Completed Successfully-- 98141 Warning; 0 Severe Errors; Elapsed Time=00hr 05min 26.06sec
