Program Version,EnergyPlus, Version 22.2.0-c249759bad, YMD=2023.09.01 19:50,
   ************* Beginning Zone Sizing Calculations
   ** Warning ** ProcessScheduleInput: Schedule:Constant="ALWAYS ON DISCRETE", Schedule Type Limits Name="ONOFF" not found -- will not be validated
   ** Warning ** Foundation:Kiva="KIVA FOUNDATION", no Interior Horizontal Insulation Material Name defined
   **   ~~~   ** Interior Horizontal Insulation Depth will not be used.
   ** Warning ** CheckUsedConstructions: There are 15 nominally unused constructions in input.
   **   ~~~   ** Each Unused construction is shown.
   ************* Construction=INTERIOR FLOOR
   ************* Construction=INTERIOR WINDOW
   ************* Construction=EXTERIOR DOOR
   ************* Construction=INTERIOR DOOR
   ************* Construction=GABLE CONSTRUCTION
   ************* Construction=CRAWL_FLOOR
   ************* Construction=INSULATED PIPE
   ************* Construction=PLAIN PIPE
   ************* Construction=TDD PIPE
   ************* Construction=TDD DOME
   ************* Construction=TDD DIFFUSER
   ************* Construction=CRAWL WALL
   ************* Construction=CEILING-FLOOR-LAYER
   ************* Construction=SLAB CONSTRUCTION W FULL R10 INSULATION
   ************* Construction=SLAB CONSTRUCTION W FULL R5 INSULATION
   ** Warning ** GetDXCoils: Coil:Heating:DX:SingleSpeed="DX_HEATING_COIL" curve values
   **   ~~~   ** ... Defrost Energy Input Ratio Function of Temperature Curve Name = DEFROSTEIR output is not equal to 1.0 (+ or - 10%) at rated conditions.
   **   ~~~   ** ... Curve output at rated conditions = 0.152
   ************* Beginning System Sizing Calculations
   ************* Beginning Plant Sizing Calculations
   ** Warning ** SizeDXCoil Coil:Cooling:DX:SingleSpeed DX_COOLING_COIL
   **   ~~~   ** ...Gross Rated Total Cooling Capacity [W] will be limited by the maximum rated volume flow per rated total capacity ratio.
   **   ~~~   ** ...DX coil volume flow rate ( m3/s ) = 0.472469
   **   ~~~   ** ...Requested capacity ( W ) = 7532.549
   **   ~~~   ** ...Requested flow/capacity ratio ( m3/s/W ) = 6.272E-005
   **   ~~~   ** ...Maximum flow/capacity ratio ( m3/s/W ) = 6.041E-005
   **   ~~~   ** ...Adjusted capacity ( W ) = 7821.053
   ** Warning ** Coil:WaterHeating:AirToWaterHeatPump:Wrapped "HEAT PUMP WATER HEATER EVAPORATOR": Rated air volume flow rate per watt of rated total water heating capacity is out of range
   **   ~~~   ** Min Rated Vol Flow Per Watt=[4.027E-005], Rated Vol Flow Per Watt=[1.510E-004], Max Rated Vol Flow Per Watt=[8.056E-005]. See Input-Output Reference Manual for valid range.
   ************* SizeFan: : Potential issue with equipment sizing for Fan:OnOff HEAT PUMP WATER HEATER FAN
   **   ~~~   ** User-Specified Maximum Flow Rate [m3/s] = 0.22653
   **   ~~~   ** differs from Design Size Maximum Flow Rate [m3/s] = 7.55250E-002
   **   ~~~   ** This may, or may not, indicate mismatched component sizes.
   **   ~~~   ** Verify that the value entered is intended and is consistent with other components.
   ** Warning ** Water heater = WATER HEATER TANK:  Recovery Efficiency and Energy Factor could not be calculated during the test for standard ratings
   **   ~~~   ** Setpoint was never recovered and/or heater never turned on
   ** Warning ** Check input. Pump nominal power or motor efficiency is set to 0, for pump=MAINS PRESSURE
   ** Warning ** Output:Meter: invalid Key Name="ELECTRIC_RANGE:INTERIOREQUIPMENT:ELECTRICITY" - not found.
   ** Warning ** Output:Meter: invalid Key Name="ELECTRIC_DRYER:INTERIOREQUIPMENT:ELECTRICITY" - not found.
   ** Warning ** Output:Meter: invalid Key Name="HEATRECOVERY:ELECTRICITY" - not found.
   ** Warning ** Output:Meter: invalid Key Name="HEATING:NATURALGAS" - not found.
   ** Warning ** Output:Meter: invalid Key Name="WATERSYSTEMS:NATURALGAS" - not found.
   ** Warning ** Output:Meter: invalid Key Name="PROPANE:FACILITY" - not found.
   ** Warning ** Output:Meter: invalid Key Name="HEATING:PROPANE" - not found.
   ************* Testing Individual Branch Integrity
   ************* All Branches passed integrity testing
   ************* Testing Individual Supply Air Path Integrity
   ************* All Supply Air Paths passed integrity testing
   ************* Testing Individual Return Air Path Integrity
   ************* All Return Air Paths passed integrity testing
   ************* No node connection errors were found.
   ************* Beginning Simulation
   ** Warning ** AirflowNetwork::Solver::validate_distribution: Heat pump water heater is simulated along with an AirflowNetwork but is not included in the AirflowNetwork.
   ** Warning ** CalcEquipmentFlowRates: "TOTAL HOT WATER LOAD" - Target water temperature is greater than the hot water temperature by (5.93 C)
   **   ~~~   **  Environment=EXTREME_WINTER, at Simulation time=01/29 06:00 - 06:15
   **   ~~~   ** ...target water temperature     = 53.33 C
   **   ~~~   ** ...hot water temperature        = 47.40 C
   **   ~~~   ** ...Target water temperature should be less than or equal to the hot water temperature. Verify temperature setpoints and schedules.
   ** Warning ** SimHVAC: Maximum iterations (20) exceeded for all HVAC loops, at ANNUAL, 01/05 14:15 - 14:30
   **   ~~~   ** The solution for one or more of the Air Loop HVAC systems did not appear to converge
   **   ~~~   ** Air System Named = CENTRAL SYSTEM did not converge for mass flow rate
   **   ~~~   ** Check values should be zero. Most Recent values listed first.
   **   ~~~   ** Demand-to-Supply interface mass flow rate check value iteration history trace: 5.691258E-002,5.691258E-002,5.691258E-002,5.691258E-002,5.691258E-002,5.691258E-002,5.691258E-002,5.691258E-002,5.691258E-002,5.691258E-002,
   **   ~~~   ** Supply-to-demand interface deck 1 mass flow rate check value iteration history trace: 5.691258E-002,5.691258E-002,5.691258E-002,5.691258E-002,5.691258E-002,5.691258E-002,5.691258E-002,5.691258E-002,5.691258E-002,5.691258E-002,
   **   ~~~   ** Air System Named = CENTRAL SYSTEM did not converge for energy
   **   ~~~   ** Check values should be zero. Most Recent values listed first.
   **   ~~~   ** Demand-to-Supply interface energy check value iteration history trace: 1125.930187,1125.930187,1125.930186,1125.930186,1125.930186,1125.930186,1125.930185,1125.930185,1125.930185,1125.930185,
   **   ~~~   ** Supply-to-demand interface deck 1 energy check value iteration history trace: 1915.389330,1915.389329,1915.389329,1915.389328,1915.389328,1915.389327,1915.389327,1915.389327,1915.389326,1915.389326,
   **   ~~~   ** Node named ZONE INLET NODE shows oscillating temperatures across iterations with a repeated value of 33.492704
   **   ~~~   ** Node named ZONE INLET NODE temperature [C] iteration history trace (most recent first): 33.492704,33.492704,33.492704,33.492703,33.492703,33.492703,33.492702,33.492702,33.492702,33.492702,
   ** Warning ** SimHVAC: Maximum iterations (20) exceeded for all HVAC loops, at ANNUAL, 01/05 18:30 - 18:45
   **   ~~~   ** The solution for one or more of the Air Loop HVAC systems did not appear to converge
   **   ~~~   ** Air System Named = CENTRAL SYSTEM did not converge for mass flow rate
   **   ~~~   ** Check values should be zero. Most Recent values listed first.
   **   ~~~   ** Demand-to-Supply interface mass flow rate check value iteration history trace: 7.180749E-002,7.180749E-002,7.180749E-002,7.180749E-002,7.180749E-002,7.180749E-002,7.180749E-002,7.180749E-002,7.180749E-002,7.180749E-002,
   **   ~~~   ** Supply-to-demand interface deck 1 mass flow rate check value iteration history trace: 7.180749E-002,7.180749E-002,7.180749E-002,7.180749E-002,7.180749E-002,7.180749E-002,7.180749E-002,7.180749E-002,7.180749E-002,7.180749E-002,
   **   ~~~   ** Air System Named = CENTRAL SYSTEM did not converge for energy
   **   ~~~   ** Check values should be zero. Most Recent values listed first.
   **   ~~~   ** Demand-to-Supply interface energy check value iteration history trace: 1429.604871,1429.604871,1429.604871,1429.604871,1429.604871,1429.604871,1429.604871,1429.604870,1429.604870,1429.604870,
   **   ~~~   ** Supply-to-demand interface deck 1 energy check value iteration history trace: 2251.802866,2251.802866,2251.802865,2251.802865,2251.802865,2251.802865,2251.802865,2251.802865,2251.802865,2251.802864,
   ** Warning ** SimHVAC: Maximum iterations (20) exceeded for all HVAC loops, at ANNUAL, 01/29 11:45 - 12:00
   **   ~~~   ** The solution for one or more of the Air Loop HVAC systems did not appear to converge
   **   ~~~   ** Air System Named = CENTRAL SYSTEM did not converge for mass flow rate
   **   ~~~   ** Check values should be zero. Most Recent values listed first.
   **   ~~~   ** Demand-to-Supply interface mass flow rate check value iteration history trace: 6.503219E-002,6.503219E-002,6.503219E-002,6.503219E-002,6.503219E-002,6.503219E-002,6.503219E-002,6.503219E-002,6.503219E-002,6.503219E-002,
   **   ~~~   ** Supply-to-demand interface deck 1 mass flow rate check value iteration history trace: 6.503219E-002,6.503219E-002,6.503219E-002,6.503219E-002,6.503219E-002,6.503219E-002,6.503219E-002,6.503219E-002,6.503219E-002,6.503219E-002,
   **   ~~~   ** Air System Named = CENTRAL SYSTEM did not converge for energy
   **   ~~~   ** Check values should be zero. Most Recent values listed first.
   **   ~~~   ** Demand-to-Supply interface energy check value iteration history trace: 1266.659912,1266.659912,1266.659912,1266.659911,1266.659911,1266.659911,1266.659911,1266.659911,1266.659910,1266.659910,
   **   ~~~   ** Supply-to-demand interface deck 1 energy check value iteration history trace: 2261.581724,2261.581723,2261.581723,2261.581722,2261.581722,2261.581722,2261.581721,2261.581721,2261.581721,2261.581720,
   **   ~~~   ** Node named ZONE INLET NODE shows oscillating temperatures across iterations with a repeated value of 34.608704
   **   ~~~   ** Node named ZONE INLET NODE temperature [C] iteration history trace (most recent first): 34.608704,34.608704,34.608703,34.608703,34.608703,34.608703,34.608702,34.608702,34.608702,34.608702,
   ** Warning ** Temperature out of range [-100. to 200.] (PsyPsatFnTemp)
   **   ~~~   **  Routine=PsyTwbFnTdbWPb, Environment=ANNUAL, at Simulation time=02/07 16:45 - 16:49
   **   ~~~   **  Input Temperature=-3911.73
   ** Warning ** SimHVAC: Maximum iterations (20) exceeded for all HVAC loops, at ANNUAL, 02/18 08:36 - 08:39
   **   ~~~   ** The solution for one or more of the Air Loop HVAC systems did not appear to converge
   **   ~~~   ** Air System Named = CENTRAL SYSTEM did not converge for mass flow rate
   **   ~~~   ** Check values should be zero. Most Recent values listed first.
   **   ~~~   ** Demand-to-Supply interface mass flow rate check value iteration history trace: 6.660428E-002,6.660428E-002,6.660428E-002,6.660428E-002,6.660428E-002,6.660428E-002,6.660428E-002,6.660428E-002,6.660428E-002,6.660428E-002,
   **   ~~~   ** Supply-to-demand interface deck 1 mass flow rate check value iteration history trace: 6.660428E-002,6.660428E-002,6.660428E-002,6.660428E-002,6.660428E-002,6.660428E-002,6.660428E-002,6.660428E-002,6.660428E-002,6.660428E-002,
   **   ~~~   ** Air System Named = CENTRAL SYSTEM did not converge for energy
   **   ~~~   ** Check values should be zero. Most Recent values listed first.
   **   ~~~   ** Demand-to-Supply interface energy check value iteration history trace: 1314.163467,1314.163467,1314.163467,1314.163467,1314.163467,1314.163466,1314.163466,1314.163466,1314.163466,1314.163466,
   **   ~~~   ** Supply-to-demand interface deck 1 energy check value iteration history trace: 2402.114373,2402.114373,2402.114373,2402.114373,2402.114372,2402.114372,2402.114372,2402.114372,2402.114372,2402.114372,
   ** Warning ** SimHVAC: Maximum iterations (20) exceeded for all HVAC loops, at ANNUAL, 03/17 08:15 - 08:30
   **   ~~~   ** The solution for one or more of the Air Loop HVAC systems did not appear to converge
   **   ~~~   ** Air System Named = CENTRAL SYSTEM did not converge for mass flow rate
   **   ~~~   ** Check values should be zero. Most Recent values listed first.
   **   ~~~   ** Demand-to-Supply interface mass flow rate check value iteration history trace: 7.229553E-002,7.229553E-002,7.229553E-002,7.229553E-002,7.229553E-002,7.229553E-002,7.229553E-002,7.229553E-002,7.229553E-002,7.229553E-002,
   **   ~~~   ** Supply-to-demand interface deck 1 mass flow rate check value iteration history trace: 7.229553E-002,7.229553E-002,7.229553E-002,7.229553E-002,7.229553E-002,7.229553E-002,7.229553E-002,7.229553E-002,7.229553E-002,7.229553E-002,
   **   ~~~   ** Air System Named = CENTRAL SYSTEM did not converge for energy
   **   ~~~   ** Check values should be zero. Most Recent values listed first.
   **   ~~~   ** Demand-to-Supply interface energy check value iteration history trace: 1432.585845,1432.585845,1432.585845,1432.585845,1432.585844,1432.585844,1432.585844,1432.585844,1432.585844,1432.585844,
   **   ~~~   ** Supply-to-demand interface deck 1 energy check value iteration history trace: 2492.791626,2492.791626,2492.791626,2492.791626,2492.791626,2492.791626,2492.791625,2492.791625,2492.791625,2492.791625,
   ** Warning ** SimHVAC: Maximum iterations (20) exceeded for all HVAC loops, at ANNUAL, 03/19 18:45 - 19:00
   **   ~~~   ** The solution for one or more of the Air Loop HVAC systems did not appear to converge
   **   ~~~   ** Air System Named = CENTRAL SYSTEM did not converge for mass flow rate
   **   ~~~   ** Check values should be zero. Most Recent values listed first.
   **   ~~~   ** Demand-to-Supply interface mass flow rate check value iteration history trace: 6.917997E-002,6.917997E-002,6.917997E-002,6.917997E-002,6.917997E-002,6.917997E-002,6.917997E-002,6.917997E-002,6.917997E-002,6.917997E-002,
   **   ~~~   ** Supply-to-demand interface deck 1 mass flow rate check value iteration history trace: 6.917997E-002,6.917997E-002,6.917997E-002,6.917997E-002,6.917997E-002,6.917997E-002,6.917997E-002,6.917997E-002,6.917997E-002,6.917997E-002,
   **   ~~~   ** Air System Named = CENTRAL SYSTEM did not converge for energy
   **   ~~~   ** Check values should be zero. Most Recent values listed first.
   **   ~~~   ** Demand-to-Supply interface energy check value iteration history trace: 1374.562708,1374.562708,1374.562708,1374.562708,1374.562708,1374.562708,1374.562708,1374.562708,1374.562708,1374.562708,
   **   ~~~   ** Supply-to-demand interface deck 1 energy check value iteration history trace: 2360.335258,2360.335258,2360.335258,2360.335258,2360.335258,2360.335257,2360.335257,2360.335257,2360.335257,2360.335257,
   ** Warning ** SimHVAC: Maximum iterations (20) exceeded for all HVAC loops, at ANNUAL, 03/22 07:15 - 07:30
   **   ~~~   ** The solution for one or more of the Air Loop HVAC systems did not appear to converge
   **   ~~~   ** Air System Named = CENTRAL SYSTEM did not converge for mass flow rate
   **   ~~~   ** Check values should be zero. Most Recent values listed first.
   **   ~~~   ** Demand-to-Supply interface mass flow rate check value iteration history trace: 6.637565E-002,6.637565E-002,6.637565E-002,6.637565E-002,6.637565E-002,6.637565E-002,6.637565E-002,6.637565E-002,6.637565E-002,6.637565E-002,
   **   ~~~   ** Supply-to-demand interface deck 1 mass flow rate check value iteration history trace: 6.637565E-002,6.637565E-002,6.637565E-002,6.637565E-002,6.637565E-002,6.637565E-002,6.637565E-002,6.637565E-002,6.637565E-002,6.637565E-002,
   **   ~~~   ** Air System Named = CENTRAL SYSTEM did not converge for energy
   **   ~~~   ** Check values should be zero. Most Recent values listed first.
   **   ~~~   ** Demand-to-Supply interface energy check value iteration history trace: 1315.287095,1315.287095,1315.287094,1315.287094,1315.287094,1315.287094,1315.287093,1315.287093,1315.287093,1315.287093,
   **   ~~~   ** Supply-to-demand interface deck 1 energy check value iteration history trace: 2433.099581,2433.099581,2433.099580,2433.099580,2433.099580,2433.099579,2433.099579,2433.099578,2433.099578,2433.099577,
   **   ~~~   ** Node named ZONE INLET NODE shows oscillating temperatures across iterations with a repeated value of 36.479808
   **   ~~~   ** Node named ZONE INLET NODE temperature [C] iteration history trace (most recent first): 36.479808,36.479808,36.479808,36.479808,36.479807,36.479807,36.479807,36.479806,36.479806,36.479806,
   ** Warning ** SimHVAC: Maximum iterations (20) exceeded for all HVAC loops, at ANNUAL, 03/27 19:15 - 19:30
   **   ~~~   ** The solution for one or more of the Air Loop HVAC systems did not appear to converge
   **   ~~~   ** Air System Named = CENTRAL SYSTEM did not converge for mass flow rate
   **   ~~~   ** Check values should be zero. Most Recent values listed first.
   **   ~~~   ** Demand-to-Supply interface mass flow rate check value iteration history trace: 5.846321E-002,5.846321E-002,5.846321E-002,5.846321E-002,5.846321E-002,5.846321E-002,5.846321E-002,5.846321E-002,5.846321E-002,5.846321E-002,
   **   ~~~   ** Supply-to-demand interface deck 1 mass flow rate check value iteration history trace: 5.846321E-002,5.846321E-002,5.846321E-002,5.846321E-002,5.846321E-002,5.846321E-002,5.846321E-002,5.846321E-002,5.846321E-002,5.846321E-002,
   **   ~~~   ** Air System Named = CENTRAL SYSTEM did not converge for energy
   **   ~~~   ** Check values should be zero. Most Recent values listed first.
   **   ~~~   ** Demand-to-Supply interface energy check value iteration history trace: 1139.290685,1139.290685,1139.290685,1139.290684,1139.290684,1139.290684,1139.290684,1139.290684,1139.290684,1139.290684,
   **   ~~~   ** Supply-to-demand interface deck 1 energy check value iteration history trace: 1978.495075,1978.495074,1978.495074,1978.495074,1978.495074,1978.495074,1978.495074,1978.495074,1978.495074,1978.495074,
   ** Warning ** SimHVAC: Maximum iterations (20) exceeded for all HVAC loops, at ANNUAL, 04/26 08:25 - 08:30
   **   ~~~   ** The solution for one or more of the Air Loop HVAC systems did not appear to converge
   **   ~~~   ** Air System Named = CENTRAL SYSTEM did not converge for mass flow rate
   **   ~~~   ** Check values should be zero. Most Recent values listed first.
   **   ~~~   ** Demand-to-Supply interface mass flow rate check value iteration history trace: 5.284300E-002,5.284300E-002,5.284300E-002,5.284300E-002,5.284300E-002,5.284300E-002,5.284300E-002,5.284300E-002,5.284300E-002,5.284300E-002,
   **   ~~~   ** Supply-to-demand interface deck 1 mass flow rate check value iteration history trace: 5.284300E-002,5.284300E-002,5.284300E-002,5.284300E-002,5.284300E-002,5.284300E-002,5.284300E-002,5.284300E-002,5.284300E-002,5.284300E-002,
   **   ~~~   ** Air System Named = CENTRAL SYSTEM did not converge for energy
   **   ~~~   ** Check values should be zero. Most Recent values listed first.
   **   ~~~   ** Demand-to-Supply interface energy check value iteration history trace: 1240.686417,1240.686417,1240.686417,1240.686418,1240.686418,1240.686418,1240.686419,1240.686419,1240.686419,1240.686420,
   **   ~~~   ** Supply-to-demand interface deck 1 energy check value iteration history trace: 623.352499,623.352499,623.352499,623.352499,623.352500,623.352500,623.352500,623.352500,623.352500,623.352500,
   ** Warning ** SimHVAC: Maximum iterations (20) exceeded for all HVAC loops, at ANNUAL, 04/27 23:50 - 23:55
   **   ~~~   ** The solution for one or more of the Air Loop HVAC systems did not appear to converge
   **   ~~~   ** Air System Named = CENTRAL SYSTEM did not converge for mass flow rate
   **   ~~~   ** Check values should be zero. Most Recent values listed first.
   **   ~~~   ** Demand-to-Supply interface mass flow rate check value iteration history trace: 1.594387E-002,1.594387E-002,1.594387E-002,1.594387E-002,1.594387E-002,1.594387E-002,1.594387E-002,1.594387E-002,1.594387E-002,1.594387E-002,
   **   ~~~   ** Supply-to-demand interface deck 1 mass flow rate check value iteration history trace: 1.594387E-002,1.594387E-002,1.594387E-002,1.594387E-002,1.594387E-002,1.594387E-002,1.594387E-002,1.594387E-002,1.594387E-002,1.594387E-002,
   **   ~~~   ** Air System Named = CENTRAL SYSTEM did not converge for energy
   **   ~~~   ** Check values should be zero. Most Recent values listed first.
   **   ~~~   ** Demand-to-Supply interface energy check value iteration history trace: 392.036328,392.036328,392.036328,392.036328,392.036328,392.036328,392.036328,392.036328,392.036328,392.036328,
   **   ~~~   ** Supply-to-demand interface deck 1 energy check value iteration history trace: 165.259988,165.259988,165.259988,165.259988,165.259988,165.259988,165.259988,165.259988,165.259988,165.259988,
   ** Warning ** SimHVAC: Maximum iterations (20) exceeded for all HVAC loops, at ANNUAL, 04/28 10:40 - 10:45
   **   ~~~   ** The solution for one or more of the Air Loop HVAC systems did not appear to converge
   **   ~~~   ** Air System Named = CENTRAL SYSTEM did not converge for mass flow rate
   **   ~~~   ** Check values should be zero. Most Recent values listed first.
   **   ~~~   ** Demand-to-Supply interface mass flow rate check value iteration history trace: 0.118281,0.118281,0.118281,0.118281,0.118281,0.118281,0.118281,0.118281,0.118281,0.118281,
   **   ~~~   ** Supply-to-demand interface deck 1 mass flow rate check value iteration history trace: 0.118281,0.118281,0.118281,0.118281,0.118281,0.118281,0.118281,0.118281,0.118281,0.118281,
   **   ~~~   ** Air System Named = CENTRAL SYSTEM did not converge for energy
   **   ~~~   ** Check values should be zero. Most Recent values listed first.
   **   ~~~   ** Demand-to-Supply interface energy check value iteration history trace: 2801.938164,2801.938164,2801.938164,2801.938164,2801.938164,2801.938165,2801.938165,2801.938165,2801.938165,2801.938165,
   **   ~~~   ** Supply-to-demand interface deck 1 energy check value iteration history trace: 1161.248914,1161.248914,1161.248914,1161.248914,1161.248914,1161.248914,1161.248914,1161.248914,1161.248915,1161.248915,
   ** Warning ** SimHVAC: Maximum iterations (20) exceeded for all HVAC loops, at ANNUAL, 05/05 07:53 - 07:56
   **   ~~~   ** The solution for one or more of the Air Loop HVAC systems did not appear to converge
   **   ~~~   ** Air System Named = CENTRAL SYSTEM did not converge for mass flow rate
   **   ~~~   ** Check values should be zero. Most Recent values listed first.
   **   ~~~   ** Demand-to-Supply interface mass flow rate check value iteration history trace: 0.169728,0.169728,0.169728,0.169728,0.169728,0.169728,0.169728,0.169728,0.169728,0.169728,
   **   ~~~   ** Supply-to-demand interface deck 1 mass flow rate check value iteration history trace: 0.169728,0.169728,0.169728,0.169728,0.169728,0.169728,0.169728,0.169728,0.169728,0.169728,
   **   ~~~   ** Air System Named = CENTRAL SYSTEM did not converge for energy
   **   ~~~   ** Check values should be zero. Most Recent values listed first.
   **   ~~~   ** Demand-to-Supply interface energy check value iteration history trace: 4037.549363,4037.549364,4037.549365,4037.549366,4037.549367,4037.549368,4037.549369,4037.549371,4037.549372,4037.549373,
   **   ~~~   ** Supply-to-demand interface deck 1 energy check value iteration history trace: 2087.911098,2087.911098,2087.911099,2087.911099,2087.911100,2087.911100,2087.911101,2087.911101,2087.911102,2087.911102,
   ** Warning ** SimHVAC: Maximum iterations (20) exceeded for all HVAC loops, at ANNUAL, 05/05 23:15 - 23:30
   **   ~~~   ** The solution for one or more of the Air Loop HVAC systems did not appear to converge
   **   ~~~   ** Air System Named = CENTRAL SYSTEM did not converge for mass flow rate
   **   ~~~   ** Check values should be zero. Most Recent values listed first.
   **   ~~~   ** Demand-to-Supply interface mass flow rate check value iteration history trace: 8.591349E-002,8.591349E-002,8.591349E-002,8.591349E-002,8.591349E-002,8.591349E-002,8.591349E-002,8.591349E-002,8.591349E-002,8.591349E-002,
   **   ~~~   ** Supply-to-demand interface deck 1 mass flow rate check value iteration history trace: 8.591349E-002,8.591349E-002,8.591349E-002,8.591349E-002,8.591349E-002,8.591349E-002,8.591349E-002,8.591349E-002,8.591349E-002,8.591349E-002,
   **   ~~~   ** Air System Named = CENTRAL SYSTEM did not converge for energy
   **   ~~~   ** Check values should be zero. Most Recent values listed first.
   **   ~~~   ** Demand-to-Supply interface energy check value iteration history trace: 2154.256190,2154.256190,2154.256190,2154.256191,2154.256191,2154.256192,2154.256192,2154.256192,2154.256193,2154.256193,
   **   ~~~   ** Supply-to-demand interface deck 1 energy check value iteration history trace: 995.911443,995.911443,995.911443,995.911443,995.911444,995.911444,995.911444,995.911444,995.911444,995.911445,
   ** Warning ** SimHVAC: Maximum iterations (20) exceeded for all HVAC loops, at ANNUAL, 05/12 04:38 - 04:45
   **   ~~~   ** The solution for one or more of the Air Loop HVAC systems did not appear to converge
   **   ~~~   ** Air System Named = CENTRAL SYSTEM did not converge for mass flow rate
   **   ~~~   ** Check values should be zero. Most Recent values listed first.
   **   ~~~   ** Demand-to-Supply interface mass flow rate check value iteration history trace: 0.103732,0.103732,0.103732,0.103732,0.103732,0.103732,0.103732,0.103732,0.103732,0.103732,
   **   ~~~   ** Supply-to-demand interface deck 1 mass flow rate check value iteration history trace: 0.103732,0.103732,0.103732,0.103732,0.103732,0.103732,0.103732,0.103732,0.103732,0.103732,
   **   ~~~   ** Air System Named = CENTRAL SYSTEM did not converge for energy
   **   ~~~   ** Check values should be zero. Most Recent values listed first.
   **   ~~~   ** Demand-to-Supply interface energy check value iteration history trace: 2552.844670,2552.844671,2552.844672,2552.844673,2552.844674,2552.844675,2552.844676,2552.844677,2552.844678,2552.844679,
   **   ~~~   ** Supply-to-demand interface deck 1 energy check value iteration history trace: 1608.148588,1608.148588,1608.148589,1608.148589,1608.148590,1608.148590,1608.148591,1608.148592,1608.148592,1608.148593,
   ************* Simulation Error Summary *************
   ** Warning ** The following Report Variables were requested but not generated -- check.rdd file
   **   ~~~   ** Either the IDF did not contain these elements, the variable name is misspelled,
   **   ~~~   ** or the requested variable is an advanced output which requires Output : Diagnostics, DisplayAdvancedReportVariables;
   ************* Key=*, VarName=BASEBOARD TOTAL HEATING ENERGY, Frequency=
   ************* Key=*, VarName=WATER HEATER NATURALGAS ENERGY, Frequency=
   ************* Key=*, VarName=COOLING COIL TOTAL HEATING ENERGY, Frequency=
   ************* There are 34 unused schedules in input.
   ************* There are 388 unused week schedules in input.
   ************* There are 396 unused day schedules in input.
   ************* Use Output:Diagnostics,DisplayUnusedSchedules; to see them.
   *************
   ************* ===== Recurring Error Summary =====
   ************* The following recurring error messages occurred.
   *************
   *************  ** Warning ** "TOTAL HOT WATER LOAD" - Target water temperature should be less than or equal to the hot water temperature error continues...
   *************  **   ~~~   **   This error occurred 125123 total times;
   *************  **   ~~~   **   during Warmup 0 times;
   *************  **   ~~~   **   during Sizing 0 times.
   *************  **   ~~~   **   Max=11.496672  Min=3.929868E-005
   *************
   *************  ** Warning ** Temperature out of range [-100. to 200.] (PsyPsatFnTemp)
   *************  **   ~~~   **   This error occurred 2 total times;
   *************  **   ~~~   **   during Warmup 0 times;
   *************  **   ~~~   **   during Sizing 0 times.
   *************  **   ~~~   **   Max=-103.308792 C  Min=-3911.73645 C
   *************
   *************  ** Warning ** SimHVAC: Exceeding Maximum iterations for all HVAC loops, during ANNUAL continues
   *************  **   ~~~   **   This error occurred 7 total times;
   *************  **   ~~~   **   during Warmup 0 times;
   *************  **   ~~~   **   during Sizing 0 times.
   *************
   *************
   ************* ===== Final Error Summary =====
   ************* The following error categories occurred.  Consider correcting or noting.
   ************* Nominally Unused Constructions
   ************* ..The nominally unused constructions warning is provided to alert you to potential conditions that can cause
   ************* ..extra time during simulation. Each construction is calculated by the algorithm indicated in the HeatBalanceAlgorithm
   ************* ..object. You may remove the constructions indicated (when you use the DisplayExtraWarnings option).
   *************
   ************* EnergyPlus Warmup Error Summary. During Warmup: 1 Warning; 0 Severe Errors.
   ************* EnergyPlus Sizing Error Summary. During Sizing: 4 Warning; 0 Severe Errors.
   ************* EnergyPlus Completed Successfully-- 125164 Warning; 0 Severe Errors; Elapsed Time=00hr 01min 33.86sec
