Program Version,EnergyPlus, Version 22.2.0-c249759bad, YMD=2023.09.01 19:47,
   ************* Beginning Zone Sizing Calculations
   ** Warning ** ProcessScheduleInput: Schedule:Constant="ALWAYS ON DISCRETE", Schedule Type Limits Name="ONOFF" not found -- will not be validated
   ** Warning ** Foundation:Kiva="KIVA FOUNDATION", no Interior Horizontal Insulation Material Name defined
   **   ~~~   ** Interior Horizontal Insulation Depth will not be used.
   ** Warning ** CheckUsedConstructions: There are 15 nominally unused constructions in input.
   **   ~~~   ** Each Unused construction is shown.
   ************* Construction=INTERIOR FLOOR
   ************* Construction=INTERIOR WINDOW
   ************* Construction=EXTERIOR DOOR
   ************* Construction=INTERIOR DOOR
   ************* Construction=GABLE CONSTRUCTION
   ************* Construction=CRAWL_FLOOR
   ************* Construction=INSULATED PIPE
   ************* Construction=PLAIN PIPE
   ************* Construction=TDD PIPE
   ************* Construction=TDD DOME
   ************* Construction=TDD DIFFUSER
   ************* Construction=CRAWL WALL
   ************* Construction=CEILING-FLOOR-LAYER
   ************* Construction=SLAB CONSTRUCTION W FULL R10 INSULATION
   ************* Construction=SLAB CONSTRUCTION W FULL R5 INSULATION
   ** Warning ** GetDXCoils: Coil:Heating:DX:SingleSpeed="DX_HEATING_COIL" curve values
   **   ~~~   ** ... Defrost Energy Input Ratio Function of Temperature Curve Name = DEFROSTEIR output is not equal to 1.0 (+ or - 10%) at rated conditions.
   **   ~~~   ** ... Curve output at rated conditions = 0.152
   ************* Beginning System Sizing Calculations
   ************* Beginning Plant Sizing Calculations
   ** Warning ** SizeDXCoil Coil:Cooling:DX:SingleSpeed DX_COOLING_COIL
   **   ~~~   ** ...Gross Rated Total Cooling Capacity [W] will be limited by the maximum rated volume flow per rated total capacity ratio.
   **   ~~~   ** ...DX coil volume flow rate ( m3/s ) = 0.397514
   **   ~~~   ** ...Requested capacity ( W ) = 6100.034
   **   ~~~   ** ...Requested flow/capacity ratio ( m3/s/W ) = 6.516E-005
   **   ~~~   ** ...Maximum flow/capacity ratio ( m3/s/W ) = 6.041E-005
   **   ~~~   ** ...Adjusted capacity ( W ) = 6580.282
   ** Warning ** SizeDXCoil Coil:Heating:DX:SingleSpeed DX_HEATING_COIL
   **   ~~~   ** ...Gross Rated Heating Capacity [W] will be limited by the maximum rated volume flow per rated total capacity ratio.
   **   ~~~   ** ...DX coil volume flow rate ( m3/s ) = 0.397514
   **   ~~~   ** ...Requested capacity ( W ) = 6580.282
   **   ~~~   ** ...Requested flow/capacity ratio ( m3/s/W ) = 6.041E-005
   **   ~~~   ** ...Maximum flow/capacity ratio ( m3/s/W ) = 6.041E-005
   **   ~~~   ** ...Adjusted capacity ( W ) = 6580.282
   ** Warning ** Coil:WaterHeating:AirToWaterHeatPump:Wrapped "HEAT PUMP WATER HEATER EVAPORATOR": Rated air volume flow rate per watt of rated total water heating capacity is out of range
   **   ~~~   ** Min Rated Vol Flow Per Watt=[4.027E-005], Rated Vol Flow Per Watt=[1.510E-004], Max Rated Vol Flow Per Watt=[8.056E-005]. See Input-Output Reference Manual for valid range.
   ************* SizeFan: : Potential issue with equipment sizing for Fan:OnOff HEAT PUMP WATER HEATER FAN
   **   ~~~   ** User-Specified Maximum Flow Rate [m3/s] = 0.22653
   **   ~~~   ** differs from Design Size Maximum Flow Rate [m3/s] = 7.55250E-002
   **   ~~~   ** This may, or may not, indicate mismatched component sizes.
   **   ~~~   ** Verify that the value entered is intended and is consistent with other components.
   ** Warning ** Water heater = WATER HEATER TANK:  Recovery Efficiency and Energy Factor could not be calculated during the test for standard ratings
   **   ~~~   ** Setpoint was never recovered and/or heater never turned on
   ** Warning ** Check input. Pump nominal power or motor efficiency is set to 0, for pump=MAINS PRESSURE
   ** Warning ** Output:Meter: invalid Key Name="ELECTRIC_RANGE:INTERIOREQUIPMENT:ELECTRICITY" - not found.
   ** Warning ** Output:Meter: invalid Key Name="ELECTRIC_DRYER:INTERIOREQUIPMENT:ELECTRICITY" - not found.
   ** Warning ** Output:Meter: invalid Key Name="HEATRECOVERY:ELECTRICITY" - not found.
   ** Warning ** Output:Meter: invalid Key Name="HEATING:NATURALGAS" - not found.
   ** Warning ** Output:Meter: invalid Key Name="WATERSYSTEMS:NATURALGAS" - not found.
   ** Warning ** Output:Meter: invalid Key Name="PROPANE:FACILITY" - not found.
   ** Warning ** Output:Meter: invalid Key Name="HEATING:PROPANE" - not found.
   ************* Testing Individual Branch Integrity
   ************* All Branches passed integrity testing
   ************* Testing Individual Supply Air Path Integrity
   ************* All Supply Air Paths passed integrity testing
   ************* Testing Individual Return Air Path Integrity
   ************* All Return Air Paths passed integrity testing
   ************* No node connection errors were found.
   ************* Beginning Simulation
   ** Warning ** AirflowNetwork::Solver::validate_distribution: Heat pump water heater is simulated along with an AirflowNetwork but is not included in the AirflowNetwork.
   ** Warning ** CalcEquipmentFlowRates: "TOTAL HOT WATER LOAD" - Target water temperature is greater than the hot water temperature by (5.07 C)
   **   ~~~   **  Environment=EXTREME_WINTER, at Simulation time=12/15 06:00 - 06:15
   **   ~~~   ** ...target water temperature     = 53.33 C
   **   ~~~   ** ...hot water temperature        = 48.26 C
   **   ~~~   ** ...Target water temperature should be less than or equal to the hot water temperature. Verify temperature setpoints and schedules.
   ** Warning ** SimHVAC: Maximum iterations (20) exceeded for all HVAC loops, at ANNUAL, 02/06 17:23 - 17:30
   **   ~~~   ** The solution for one or more of the Air Loop HVAC systems did not appear to converge
   **   ~~~   ** Air System Named = CENTRAL SYSTEM did not converge for mass flow rate
   **   ~~~   ** Check values should be zero. Most Recent values listed first.
   **   ~~~   ** Demand-to-Supply interface mass flow rate check value iteration history trace: 0.123154,0.123154,0.123154,0.123154,0.123154,0.123154,0.123154,0.123154,0.123154,0.123154,
   **   ~~~   ** Supply-to-demand interface deck 1 mass flow rate check value iteration history trace: 0.123154,0.123154,0.123154,0.123154,0.123154,0.123154,0.123154,0.123154,0.123154,0.123154,
   **   ~~~   ** Air System Named = CENTRAL SYSTEM did not converge for energy
   **   ~~~   ** Check values should be zero. Most Recent values listed first.
   **   ~~~   ** Demand-to-Supply interface energy check value iteration history trace: 2432.576072,2432.576072,2432.576072,2432.576071,2432.576071,2432.576071,2432.576071,2432.576071,2432.576070,2432.576070,
   **   ~~~   ** Supply-to-demand interface deck 1 energy check value iteration history trace: 3555.034010,3555.034009,3555.034009,3555.034009,3555.034009,3555.034008,3555.034008,3555.034008,3555.034007,3555.034007,
   ** Warning ** SimHVAC: Maximum iterations (20) exceeded for all HVAC loops, at ANNUAL, 02/08 18:50 - 18:55
   **   ~~~   ** The solution for one or more of the Air Loop HVAC systems did not appear to converge
   **   ~~~   ** Air System Named = CENTRAL SYSTEM did not converge for mass flow rate
   **   ~~~   ** Check values should be zero. Most Recent values listed first.
   **   ~~~   ** Demand-to-Supply interface mass flow rate check value iteration history trace: 8.987385E-002,8.987385E-002,8.987385E-002,8.987385E-002,8.987385E-002,8.987385E-002,8.987385E-002,8.987385E-002,8.987385E-002,8.987385E-002,
   **   ~~~   ** Supply-to-demand interface deck 1 mass flow rate check value iteration history trace: 8.987385E-002,8.987385E-002,8.987385E-002,8.987385E-002,8.987385E-002,8.987385E-002,8.987385E-002,8.987385E-002,8.987385E-002,8.987385E-002,
   **   ~~~   ** Air System Named = CENTRAL SYSTEM did not converge for energy
   **   ~~~   ** Check values should be zero. Most Recent values listed first.
   **   ~~~   ** Demand-to-Supply interface energy check value iteration history trace: 1778.008409,1778.008409,1778.008409,1778.008409,1778.008408,1778.008408,1778.008408,1778.008408,1778.008408,1778.008408,
   **   ~~~   ** Supply-to-demand interface deck 1 energy check value iteration history trace: 2685.126055,2685.126055,2685.126055,2685.126055,2685.126055,2685.126055,2685.126054,2685.126054,2685.126054,2685.126054,
   ** Warning ** SimHVAC: Maximum iterations (20) exceeded for all HVAC loops, at ANNUAL, 03/20 11:00 - 11:08
   **   ~~~   ** The solution for one or more of the Air Loop HVAC systems did not appear to converge
   **   ~~~   ** Air System Named = CENTRAL SYSTEM did not converge for mass flow rate
   **   ~~~   ** Check values should be zero. Most Recent values listed first.
   **   ~~~   ** Demand-to-Supply interface mass flow rate check value iteration history trace: 8.089881E-002,8.089881E-002,8.089881E-002,8.089881E-002,8.089881E-002,8.089881E-002,8.089881E-002,8.089881E-002,8.089881E-002,8.089881E-002,
   **   ~~~   ** Supply-to-demand interface deck 1 mass flow rate check value iteration history trace: 8.089881E-002,8.089881E-002,8.089881E-002,8.089881E-002,8.089881E-002,8.089881E-002,8.089881E-002,8.089881E-002,8.089881E-002,8.089881E-002,
   **   ~~~   ** Air System Named = CENTRAL SYSTEM did not converge for energy
   **   ~~~   ** Check values should be zero. Most Recent values listed first.
   **   ~~~   ** Demand-to-Supply interface energy check value iteration history trace: 1606.599299,1606.599299,1606.599299,1606.599299,1606.599299,1606.599299,1606.599299,1606.599298,1606.599298,1606.599298,
   **   ~~~   ** Supply-to-demand interface deck 1 energy check value iteration history trace: 2446.208971,2446.208971,2446.208971,2446.208971,2446.208970,2446.208970,2446.208970,2446.208970,2446.208970,2446.208970,
   ** Warning ** SimHVAC: Maximum iterations (20) exceeded for all HVAC loops, at ANNUAL, 03/24 18:00 - 18:15
   **   ~~~   ** The solution for one or more of the Air Loop HVAC systems did not appear to converge
   **   ~~~   ** Air System Named = CENTRAL SYSTEM did not converge for mass flow rate
   **   ~~~   ** Check values should be zero. Most Recent values listed first.
   **   ~~~   ** Demand-to-Supply interface mass flow rate check value iteration history trace: 6.997165E-002,6.997165E-002,6.997165E-002,6.997165E-002,6.997165E-002,6.997165E-002,6.997165E-002,6.997165E-002,6.997165E-002,6.997165E-002,
   **   ~~~   ** Supply-to-demand interface deck 1 mass flow rate check value iteration history trace: 6.997165E-002,6.997165E-002,6.997165E-002,6.997165E-002,6.997165E-002,6.997165E-002,6.997165E-002,6.997165E-002,6.997165E-002,6.997165E-002,
   **   ~~~   ** Air System Named = CENTRAL SYSTEM did not converge for energy
   **   ~~~   ** Check values should be zero. Most Recent values listed first.
   **   ~~~   ** Demand-to-Supply interface energy check value iteration history trace: 1385.219567,1385.219567,1385.219567,1385.219567,1385.219567,1385.219567,1385.219567,1385.219567,1385.219566,1385.219566,
   **   ~~~   ** Supply-to-demand interface deck 1 energy check value iteration history trace: 2370.315334,2370.315334,2370.315334,2370.315334,2370.315334,2370.315334,2370.315334,2370.315333,2370.315333,2370.315333,
   ** Warning ** SimHVAC: Maximum iterations (20) exceeded for all HVAC loops, at ANNUAL, 03/24 19:30 - 19:45
   **   ~~~   ** The solution for one or more of the Air Loop HVAC systems did not appear to converge
   **   ~~~   ** Air System Named = CENTRAL SYSTEM did not converge for mass flow rate
   **   ~~~   ** Check values should be zero. Most Recent values listed first.
   **   ~~~   ** Demand-to-Supply interface mass flow rate check value iteration history trace: 2.117792E-002,2.117792E-002,2.117792E-002,2.117792E-002,2.117792E-002,2.117792E-002,2.117792E-002,2.117792E-002,2.117792E-002,2.117792E-002,
   **   ~~~   ** Supply-to-demand interface deck 1 mass flow rate check value iteration history trace: 2.117792E-002,2.117792E-002,2.117792E-002,2.117792E-002,2.117792E-002,2.117792E-002,2.117792E-002,2.117792E-002,2.117792E-002,2.117792E-002,
   **   ~~~   ** Air System Named = CENTRAL SYSTEM did not converge for energy
   **   ~~~   ** Check values should be zero. Most Recent values listed first.
   **   ~~~   ** Demand-to-Supply interface energy check value iteration history trace: 414.238342,414.238342,414.238342,414.238342,414.238342,414.238342,414.238342,414.238342,414.238342,414.238342,
   **   ~~~   ** Supply-to-demand interface deck 1 energy check value iteration history trace: 703.509453,703.509453,703.509453,703.509453,703.509453,703.509453,703.509453,703.509453,703.509453,703.509453,
   ** Warning ** SimHVAC: Maximum iterations (20) exceeded for all HVAC loops, at ANNUAL, 03/31 22:45 - 22:52
   **   ~~~   ** The solution for one or more of the Air Loop HVAC systems did not appear to converge
   **   ~~~   ** Air System Named = CENTRAL SYSTEM did not converge for mass flow rate
   **   ~~~   ** Check values should be zero. Most Recent values listed first.
   **   ~~~   ** Demand-to-Supply interface mass flow rate check value iteration history trace: 8.921115E-002,8.921115E-002,8.921115E-002,8.921115E-002,8.921115E-002,8.921115E-002,8.921115E-002,8.921115E-002,8.921115E-002,8.921115E-002,
   **   ~~~   ** Supply-to-demand interface deck 1 mass flow rate check value iteration history trace: 8.921115E-002,8.921115E-002,8.921115E-002,8.921115E-002,8.921115E-002,8.921115E-002,8.921115E-002,8.921115E-002,8.921115E-002,8.921115E-002,
   **   ~~~   ** Air System Named = CENTRAL SYSTEM did not converge for energy
   **   ~~~   ** Check values should be zero. Most Recent values listed first.
   **   ~~~   ** Demand-to-Supply interface energy check value iteration history trace: 1671.477872,1671.477872,1671.477872,1671.477872,1671.477872,1671.477872,1671.477872,1671.477871,1671.477871,1671.477871,
   **   ~~~   ** Supply-to-demand interface deck 1 energy check value iteration history trace: 2541.219779,2541.219779,2541.219779,2541.219779,2541.219778,2541.219778,2541.219778,2541.219778,2541.219778,2541.219778,
   ** Warning ** SimHVAC: Maximum iterations (20) exceeded for all HVAC loops, at ANNUAL, 04/28 08:49 - 08:52
   **   ~~~   ** The solution for one or more of the Air Loop HVAC systems did not appear to converge
   **   ~~~   ** Air System Named = CENTRAL SYSTEM did not converge for mass flow rate
   **   ~~~   ** Check values should be zero. Most Recent values listed first.
   **   ~~~   ** Demand-to-Supply interface mass flow rate check value iteration history trace: 8.087991E-002,8.087991E-002,8.087991E-002,8.087991E-002,8.087991E-002,8.087991E-002,8.087991E-002,8.087991E-002,8.087991E-002,8.087991E-002,
   **   ~~~   ** Supply-to-demand interface deck 1 mass flow rate check value iteration history trace: 8.087991E-002,8.087991E-002,8.087991E-002,8.087991E-002,8.087991E-002,8.087991E-002,8.087991E-002,8.087991E-002,8.087991E-002,8.087991E-002,
   **   ~~~   ** Air System Named = CENTRAL SYSTEM did not converge for energy
   **   ~~~   ** Check values should be zero. Most Recent values listed first.
   **   ~~~   ** Demand-to-Supply interface energy check value iteration history trace: 1602.745321,1602.745320,1602.745320,1602.745320,1602.745320,1602.745320,1602.745320,1602.745320,1602.745320,1602.745320,
   **   ~~~   ** Supply-to-demand interface deck 1 energy check value iteration history trace: 2721.328595,2721.328595,2721.328594,2721.328594,2721.328594,2721.328594,2721.328594,2721.328594,2721.328594,2721.328593,
   ** Warning ** SimHVAC: Maximum iterations (20) exceeded for all HVAC loops, at ANNUAL, 04/30 12:45 - 12:50
   **   ~~~   ** The solution for one or more of the Air Loop HVAC systems did not appear to converge
   **   ~~~   ** Air System Named = CENTRAL SYSTEM did not converge for mass flow rate
   **   ~~~   ** Check values should be zero. Most Recent values listed first.
   **   ~~~   ** Demand-to-Supply interface mass flow rate check value iteration history trace: 8.075405E-002,8.075405E-002,8.075405E-002,8.075405E-002,8.075405E-002,8.075405E-002,8.075405E-002,8.075405E-002,8.075405E-002,8.075405E-002,
   **   ~~~   ** Supply-to-demand interface deck 1 mass flow rate check value iteration history trace: 8.075405E-002,8.075405E-002,8.075405E-002,8.075405E-002,8.075405E-002,8.075405E-002,8.075405E-002,8.075405E-002,8.075405E-002,8.075405E-002,
   **   ~~~   ** Air System Named = CENTRAL SYSTEM did not converge for energy
   **   ~~~   ** Check values should be zero. Most Recent values listed first.
   **   ~~~   ** Demand-to-Supply interface energy check value iteration history trace: 1595.218338,1595.218338,1595.218338,1595.218338,1595.218338,1595.218338,1595.218338,1595.218338,1595.218337,1595.218337,
   **   ~~~   ** Supply-to-demand interface deck 1 energy check value iteration history trace: 2536.844261,2536.844261,2536.844260,2536.844260,2536.844260,2536.844260,2536.844260,2536.844260,2536.844260,2536.844259,
   ** Warning ** SimHVAC: Maximum iterations (20) exceeded for all HVAC loops, at ANNUAL, 05/03 11:00 - 11:15
   **   ~~~   ** The solution for one or more of the Air Loop HVAC systems did not appear to converge
   **   ~~~   ** Air System Named = CENTRAL SYSTEM did not converge for mass flow rate
   **   ~~~   ** Check values should be zero. Most Recent values listed first.
   **   ~~~   ** Demand-to-Supply interface mass flow rate check value iteration history trace: 1.503532E-002,1.503532E-002,1.503532E-002,1.503532E-002,1.503532E-002,1.503532E-002,1.503532E-002,1.503532E-002,1.503532E-002,1.503532E-002,
   **   ~~~   ** Supply-to-demand interface deck 1 mass flow rate check value iteration history trace: 1.503532E-002,1.503532E-002,1.503532E-002,1.503532E-002,1.503532E-002,1.503532E-002,1.503532E-002,1.503532E-002,1.503532E-002,1.503532E-002,
   **   ~~~   ** Air System Named = CENTRAL SYSTEM did not converge for energy
   **   ~~~   ** Check values should be zero. Most Recent values listed first.
   **   ~~~   ** Demand-to-Supply interface energy check value iteration history trace: 297.953488,297.953488,297.953488,297.953488,297.953488,297.953488,297.953488,297.953488,297.953488,297.953488,
   **   ~~~   ** Supply-to-demand interface deck 1 energy check value iteration history trace: 507.266283,507.266283,507.266283,507.266283,507.266283,507.266283,507.266283,507.266283,507.266283,507.266283,
   ** Warning ** SimHVAC: Maximum iterations (20) exceeded for all HVAC loops, at ANNUAL, 05/04 09:06 - 09:08
   **   ~~~   ** The solution for one or more of the Air Loop HVAC systems did not appear to converge
   **   ~~~   ** Air System Named = CENTRAL SYSTEM did not converge for mass flow rate
   **   ~~~   ** Check values should be zero. Most Recent values listed first.
   **   ~~~   ** Demand-to-Supply interface mass flow rate check value iteration history trace: 6.033997E-002,6.033997E-002,6.033997E-002,6.033997E-002,6.033997E-002,6.033997E-002,6.033997E-002,6.033997E-002,6.033997E-002,6.033997E-002,
   **   ~~~   ** Supply-to-demand interface deck 1 mass flow rate check value iteration history trace: 6.033997E-002,6.033997E-002,6.033997E-002,6.033997E-002,6.033997E-002,6.033997E-002,6.033997E-002,6.033997E-002,6.033997E-002,6.033997E-002,
   **   ~~~   ** Air System Named = CENTRAL SYSTEM did not converge for energy
   **   ~~~   ** Check values should be zero. Most Recent values listed first.
   **   ~~~   ** Demand-to-Supply interface energy check value iteration history trace: 1191.053250,1191.053250,1191.053250,1191.053250,1191.053250,1191.053250,1191.053250,1191.053250,1191.053250,1191.053250,
   **   ~~~   ** Supply-to-demand interface deck 1 energy check value iteration history trace: 2143.870240,2143.870240,2143.870240,2143.870239,2143.870239,2143.870239,2143.870239,2143.870239,2143.870239,2143.870239,
   ** Warning ** SimHVAC: Maximum iterations (20) exceeded for all HVAC loops, at ANNUAL, 05/14 19:00 - 19:15
   **   ~~~   ** The solution for one or more of the Air Loop HVAC systems did not appear to converge
   **   ~~~   ** Air System Named = CENTRAL SYSTEM did not converge for mass flow rate
   **   ~~~   ** Check values should be zero. Most Recent values listed first.
   **   ~~~   ** Demand-to-Supply interface mass flow rate check value iteration history trace: 6.008494E-002,6.008494E-002,6.008494E-002,6.008494E-002,6.008494E-002,6.008494E-002,6.008494E-002,6.008494E-002,6.008494E-002,6.008494E-002,
   **   ~~~   ** Supply-to-demand interface deck 1 mass flow rate check value iteration history trace: 6.008494E-002,6.008494E-002,6.008494E-002,6.008494E-002,6.008494E-002,6.008494E-002,6.008494E-002,6.008494E-002,6.008494E-002,6.008494E-002,
   **   ~~~   ** Air System Named = CENTRAL SYSTEM did not converge for energy
   **   ~~~   ** Check values should be zero. Most Recent values listed first.
   **   ~~~   ** Demand-to-Supply interface energy check value iteration history trace: 1163.122084,1163.122084,1163.122084,1163.122084,1163.122084,1163.122084,1163.122084,1163.122084,1163.122084,1163.122084,
   **   ~~~   ** Supply-to-demand interface deck 1 energy check value iteration history trace: 2050.455835,2050.455835,2050.455835,2050.455835,2050.455835,2050.455835,2050.455835,2050.455834,2050.455834,2050.455834,
   ** Warning ** SimHVAC: Maximum iterations (20) exceeded for all HVAC loops, at ANNUAL, 06/16 06:45 - 07:00
   **   ~~~   ** The solution for one or more of the Air Loop HVAC systems did not appear to converge
   **   ~~~   ** Air System Named = CENTRAL SYSTEM did not converge for mass flow rate
   **   ~~~   ** Check values should be zero. Most Recent values listed first.
   **   ~~~   ** Demand-to-Supply interface mass flow rate check value iteration history trace: 3.088455E-002,3.088455E-002,3.088455E-002,3.088455E-002,3.088455E-002,3.088455E-002,3.088455E-002,3.088455E-002,3.088455E-002,3.088455E-002,
   **   ~~~   ** Supply-to-demand interface deck 1 mass flow rate check value iteration history trace: 3.088455E-002,3.088455E-002,3.088455E-002,3.088455E-002,3.088455E-002,3.088455E-002,3.088455E-002,3.088455E-002,3.088455E-002,3.088455E-002,
   **   ~~~   ** Air System Named = CENTRAL SYSTEM did not converge for energy
   **   ~~~   ** Check values should be zero. Most Recent values listed first.
   **   ~~~   ** Demand-to-Supply interface energy check value iteration history trace: 733.680120,733.680120,733.680120,733.680120,733.680120,733.680121,733.680121,733.680121,733.680121,733.680121,
   **   ~~~   ** Supply-to-demand interface deck 1 energy check value iteration history trace: 409.808079,409.808079,409.808079,409.808079,409.808079,409.808079,409.808079,409.808079,409.808079,409.808080,
   ** Warning ** SimHVAC: Maximum iterations (20) exceeded for all HVAC loops, at ANNUAL, 06/16 09:54 - 09:56
   **   ~~~   ** The solution for one or more of the Air Loop HVAC systems did not appear to converge
   **   ~~~   ** Air System Named = CENTRAL SYSTEM did not converge for mass flow rate
   **   ~~~   ** Check values should be zero. Most Recent values listed first.
   **   ~~~   ** Demand-to-Supply interface mass flow rate check value iteration history trace: 0.145709,0.145709,0.145709,0.145709,0.145709,0.145709,0.145709,0.145709,0.145709,0.145709,
   **   ~~~   ** Supply-to-demand interface deck 1 mass flow rate check value iteration history trace: 0.145709,0.145709,0.145709,0.145709,0.145709,0.145709,0.145709,0.145709,0.145709,0.145709,
   **   ~~~   ** Air System Named = CENTRAL SYSTEM did not converge for energy
   **   ~~~   ** Check values should be zero. Most Recent values listed first.
   **   ~~~   ** Demand-to-Supply interface energy check value iteration history trace: 3436.046106,3436.046107,3436.046108,3436.046109,3436.046110,3436.046111,3436.046112,3436.046113,3436.046114,3436.046115,
   **   ~~~   ** Supply-to-demand interface deck 1 energy check value iteration history trace: 1857.372301,1857.372301,1857.372302,1857.372302,1857.372303,1857.372303,1857.372304,1857.372305,1857.372305,1857.372306,
   ** Warning ** SimHVAC: Maximum iterations (20) exceeded for all HVAC loops, at ANNUAL, 06/19 10:36 - 10:39
   **   ~~~   ** The solution for one or more of the Air Loop HVAC systems did not appear to converge
   **   ~~~   ** Air System Named = CENTRAL SYSTEM did not converge for mass flow rate
   **   ~~~   ** Check values should be zero. Most Recent values listed first.
   **   ~~~   ** Demand-to-Supply interface mass flow rate check value iteration history trace: 0.245518,0.245518,0.245518,0.245518,0.245518,0.245518,0.245518,0.245518,0.245518,0.245518,
   **   ~~~   ** Supply-to-demand interface deck 1 mass flow rate check value iteration history trace: 0.245518,0.245518,0.245518,0.245518,0.245518,0.245518,0.245518,0.245518,0.245518,0.245518,
   **   ~~~   ** Air System Named = CENTRAL SYSTEM did not converge for energy
   **   ~~~   ** Check values should be zero. Most Recent values listed first.
   **   ~~~   ** Demand-to-Supply interface energy check value iteration history trace: 5865.258749,5865.258749,5865.258749,5865.258750,5865.258750,5865.258750,5865.258751,5865.258751,5865.258751,5865.258751,
   **   ~~~   ** Supply-to-demand interface deck 1 energy check value iteration history trace: 2715.756323,2715.756323,2715.756323,2715.756323,2715.756323,2715.756323,2715.756324,2715.756324,2715.756324,2715.756324,
   ************* Simulation Error Summary *************
   ** Warning ** The following Report Variables were requested but not generated -- check.rdd file
   **   ~~~   ** Either the IDF did not contain these elements, the variable name is misspelled,
   **   ~~~   ** or the requested variable is an advanced output which requires Output : Diagnostics, DisplayAdvancedReportVariables;
   ************* Key=*, VarName=BASEBOARD TOTAL HEATING ENERGY, Frequency=
   ************* Key=*, VarName=WATER HEATER NATURALGAS ENERGY, Frequency=
   ************* Key=*, VarName=COOLING COIL TOTAL HEATING ENERGY, Frequency=
   ************* There are 34 unused schedules in input.
   ************* There are 388 unused week schedules in input.
   ************* There are 396 unused day schedules in input.
   ************* Use Output:Diagnostics,DisplayUnusedSchedules; to see them.
   *************
   ************* ===== Recurring Error Summary =====
   ************* The following recurring error messages occurred.
   *************
   *************  ** Warning ** "TOTAL HOT WATER LOAD" - Target water temperature should be less than or equal to the hot water temperature error continues...
   *************  **   ~~~   **   This error occurred 108029 total times;
   *************  **   ~~~   **   during Warmup 0 times;
   *************  **   ~~~   **   during Sizing 0 times.
   *************  **   ~~~   **   Max=14.293504  Min=4.909313E-004
   *************
   *************  ** Warning ** SimHVAC: Exceeding Maximum iterations for all HVAC loops, during ANNUAL continues
   *************  **   ~~~   **   This error occurred 8 total times;
   *************  **   ~~~   **   during Warmup 0 times;
   *************  **   ~~~   **   during Sizing 0 times.
   *************
   *************
   ************* ===== Final Error Summary =====
   ************* The following error categories occurred.  Consider correcting or noting.
   ************* Nominally Unused Constructions
   ************* ..The nominally unused constructions warning is provided to alert you to potential conditions that can cause
   ************* ..extra time during simulation. Each construction is calculated by the algorithm indicated in the HeatBalanceAlgorithm
   ************* ..object. You may remove the constructions indicated (when you use the DisplayExtraWarnings option).
   *************
   ************* EnergyPlus Warmup Error Summary. During Warmup: 1 Warning; 0 Severe Errors.
   ************* EnergyPlus Sizing Error Summary. During Sizing: 4 Warning; 0 Severe Errors.
   ************* EnergyPlus Completed Successfully-- 108070 Warning; 0 Severe Errors; Elapsed Time=00hr 01min 26.96sec
