Program Version,EnergyPlus, Version 22.2.0-c249759bad, YMD=2023.09.01 14:50,
   ************* Beginning Zone Sizing Calculations
   ** Warning ** ProcessScheduleInput: Schedule:Constant="ALWAYS ON DISCRETE", Schedule Type Limits Name="ONOFF" not found -- will not be validated
   ** Warning ** Foundation:Kiva="KIVA FOUNDATION", no Interior Horizontal Insulation Material Name defined
   **   ~~~   ** Interior Horizontal Insulation Depth will not be used.
   ** Warning ** CheckUsedConstructions: There are 15 nominally unused constructions in input.
   **   ~~~   ** Each Unused construction is shown.
   ************* Construction=INTERIOR FLOOR
   ************* Construction=INTERIOR WINDOW
   ************* Construction=EXTERIOR DOOR
   ************* Construction=INTERIOR DOOR
   ************* Construction=GABLE CONSTRUCTION
   ************* Construction=CRAWL_FLOOR
   ************* Construction=INSULATED PIPE
   ************* Construction=PLAIN PIPE
   ************* Construction=TDD PIPE
   ************* Construction=TDD DOME
   ************* Construction=TDD DIFFUSER
   ************* Construction=CRAWL WALL
   ************* Construction=CEILING-FLOOR-LAYER
   ************* Construction=SLAB CONSTRUCTION W FULL R10 INSULATION
   ************* Construction=SLAB CONSTRUCTION W FULL R5 INSULATION
   ** Warning ** GetDXCoils: Coil:Heating:DX:SingleSpeed="DX_HEATING_COIL" curve values
   **   ~~~   ** ... Defrost Energy Input Ratio Function of Temperature Curve Name = DEFROSTEIR output is not equal to 1.0 (+ or - 10%) at rated conditions.
   **   ~~~   ** ... Curve output at rated conditions = 0.152
   ************* Beginning System Sizing Calculations
   ************* Beginning Plant Sizing Calculations
   ** Warning ** SizeDXCoil Coil:Cooling:DX:SingleSpeed DX_COOLING_COIL
   **   ~~~   ** ...Gross Rated Total Cooling Capacity [W] will be limited by the maximum rated volume flow per rated total capacity ratio.
   **   ~~~   ** ...DX coil volume flow rate ( m3/s ) = 0.428848
   **   ~~~   ** ...Requested capacity ( W ) = 6699.352
   **   ~~~   ** ...Requested flow/capacity ratio ( m3/s/W ) = 6.401E-005
   **   ~~~   ** ...Maximum flow/capacity ratio ( m3/s/W ) = 6.041E-005
   **   ~~~   ** ...Adjusted capacity ( W ) = 7098.957
   ** Warning ** Coil:WaterHeating:AirToWaterHeatPump:Wrapped "HEAT PUMP WATER HEATER EVAPORATOR": Rated air volume flow rate per watt of rated total water heating capacity is out of range
   **   ~~~   ** Min Rated Vol Flow Per Watt=[4.027E-005], Rated Vol Flow Per Watt=[1.386E-004], Max Rated Vol Flow Per Watt=[8.056E-005]. See Input-Output Reference Manual for valid range.
   ** Warning ** Water heater = WATER HEATER TANK:  Recovery Efficiency and Energy Factor could not be calculated during the test for standard ratings
   **   ~~~   ** Setpoint was never recovered and/or heater never turned on
   ** Warning ** Check input. Pump nominal power or motor efficiency is set to 0, for pump=MAINS PRESSURE
   ** Warning ** Output:Meter: invalid Key Name="ELECTRIC_RANGE:INTERIOREQUIPMENT:ELECTRICITY" - not found.
   ** Warning ** Output:Meter: invalid Key Name="ELECTRIC_DRYER:INTERIOREQUIPMENT:ELECTRICITY" - not found.
   ** Warning ** Output:Meter: invalid Key Name="HEATRECOVERY:ELECTRICITY" - not found.
   ** Warning ** Output:Meter: invalid Key Name="HEATING:NATURALGAS" - not found.
   ** Warning ** Output:Meter: invalid Key Name="WATERSYSTEMS:NATURALGAS" - not found.
   ** Warning ** Output:Meter: invalid Key Name="PROPANE:FACILITY" - not found.
   ** Warning ** Output:Meter: invalid Key Name="HEATING:PROPANE" - not found.
   ************* Testing Individual Branch Integrity
   ************* All Branches passed integrity testing
   ************* Testing Individual Supply Air Path Integrity
   ************* All Supply Air Paths passed integrity testing
   ************* Testing Individual Return Air Path Integrity
   ************* All Return Air Paths passed integrity testing
   ************* No node connection errors were found.
   ************* Beginning Simulation
   ** Warning ** AirflowNetwork::Solver::validate_distribution: Heat pump water heater is simulated along with an AirflowNetwork but is not included in the AirflowNetwork.
   ** Warning ** CalcEquipmentFlowRates: "TOTAL HOT WATER LOAD" - Target water temperature is greater than the hot water temperature by (1.69 C)
   **   ~~~   **  Environment=EXTREME_WINTER, at Simulation time=02/10 06:00 - 06:15
   **   ~~~   ** ...target water temperature     = 53.33 C
   **   ~~~   ** ...hot water temperature        = 51.64 C
   **   ~~~   ** ...Target water temperature should be less than or equal to the hot water temperature. Verify temperature setpoints and schedules.
   ** Warning ** SimHVAC: Maximum iterations (20) exceeded for all HVAC loops, at ANNUAL, 01/24 18:15 - 18:30
   **   ~~~   ** The solution for one or more of the Air Loop HVAC systems did not appear to converge
   **   ~~~   ** Air System Named = CENTRAL SYSTEM did not converge for mass flow rate
   **   ~~~   ** Check values should be zero. Most Recent values listed first.
   **   ~~~   ** Demand-to-Supply interface mass flow rate check value iteration history trace: 7.222037E-002,7.222037E-002,7.222037E-002,7.222037E-002,7.222037E-002,7.222037E-002,7.222037E-002,7.222037E-002,7.222037E-002,7.222037E-002,
   **   ~~~   ** Supply-to-demand interface deck 1 mass flow rate check value iteration history trace: 7.222037E-002,7.222037E-002,7.222037E-002,7.222037E-002,7.222037E-002,7.222037E-002,7.222037E-002,7.222037E-002,7.222037E-002,7.222037E-002,
   **   ~~~   ** Air System Named = CENTRAL SYSTEM did not converge for energy
   **   ~~~   ** Check values should be zero. Most Recent values listed first.
   **   ~~~   ** Demand-to-Supply interface energy check value iteration history trace: 1426.706192,1426.706192,1426.706192,1426.706192,1426.706192,1426.706192,1426.706192,1426.706192,1426.706192,1426.706192,
   **   ~~~   ** Supply-to-demand interface deck 1 energy check value iteration history trace: 2448.066235,2448.066235,2448.066235,2448.066234,2448.066234,2448.066234,2448.066234,2448.066234,2448.066234,2448.066234,
   ** Warning ** SimHVAC: Maximum iterations (20) exceeded for all HVAC loops, at ANNUAL, 03/12 08:45 - 08:50
   **   ~~~   ** The solution for one or more of the Air Loop HVAC systems did not appear to converge
   **   ~~~   ** Air System Named = CENTRAL SYSTEM did not converge for mass flow rate
   **   ~~~   ** Check values should be zero. Most Recent values listed first.
   **   ~~~   ** Demand-to-Supply interface mass flow rate check value iteration history trace: 8.100270E-002,8.100270E-002,8.100270E-002,8.100270E-002,8.100270E-002,8.100270E-002,8.100270E-002,8.100270E-002,8.100270E-002,8.100270E-002,
   **   ~~~   ** Supply-to-demand interface deck 1 mass flow rate check value iteration history trace: 8.100270E-002,8.100270E-002,8.100270E-002,8.100270E-002,8.100270E-002,8.100270E-002,8.100270E-002,8.100270E-002,8.100270E-002,8.100270E-002,
   **   ~~~   ** Air System Named = CENTRAL SYSTEM did not converge for energy
   **   ~~~   ** Check values should be zero. Most Recent values listed first.
   **   ~~~   ** Demand-to-Supply interface energy check value iteration history trace: 1605.110933,1605.110933,1605.110933,1605.110933,1605.110933,1605.110933,1605.110933,1605.110933,1605.110933,1605.110933,
   **   ~~~   ** Supply-to-demand interface deck 1 energy check value iteration history trace: 2843.249781,2843.249781,2843.249781,2843.249781,2843.249781,2843.249781,2843.249781,2843.249781,2843.249781,2843.249780,
   ** Warning ** SimHVAC: Maximum iterations (20) exceeded for all HVAC loops, at ANNUAL, 10/20 05:55 - 06:00
   **   ~~~   ** The solution for one or more of the Air Loop HVAC systems did not appear to converge
   **   ~~~   ** Air System Named = CENTRAL SYSTEM did not converge for mass flow rate
   **   ~~~   ** Check values should be zero. Most Recent values listed first.
   **   ~~~   ** Demand-to-Supply interface mass flow rate check value iteration history trace: 7.124357E-002,7.124357E-002,7.124357E-002,7.124357E-002,7.124357E-002,7.124357E-002,7.124357E-002,7.124357E-002,7.124357E-002,7.124357E-002,
   **   ~~~   ** Supply-to-demand interface deck 1 mass flow rate check value iteration history trace: 7.124357E-002,7.124357E-002,7.124357E-002,7.124357E-002,7.124357E-002,7.124357E-002,7.124357E-002,7.124357E-002,7.124357E-002,7.124357E-002,
   **   ~~~   ** Air System Named = CENTRAL SYSTEM did not converge for energy
   **   ~~~   ** Check values should be zero. Most Recent values listed first.
   **   ~~~   ** Demand-to-Supply interface energy check value iteration history trace: 1421.034088,1421.034088,1421.034088,1421.034088,1421.034088,1421.034088,1421.034088,1421.034088,1421.034088,1421.034088,
   **   ~~~   ** Supply-to-demand interface deck 1 energy check value iteration history trace: 2420.108106,2420.108106,2420.108106,2420.108106,2420.108106,2420.108106,2420.108106,2420.108106,2420.108105,2420.108105,
   ** Warning ** SimHVAC: Maximum iterations (20) exceeded for all HVAC loops, at ANNUAL, 11/07 07:30 - 07:45
   **   ~~~   ** The solution for one or more of the Air Loop HVAC systems did not appear to converge
   **   ~~~   ** Air System Named = CENTRAL SYSTEM did not converge for mass flow rate
   **   ~~~   ** Check values should be zero. Most Recent values listed first.
   **   ~~~   ** Demand-to-Supply interface mass flow rate check value iteration history trace: 7.274039E-002,7.274039E-002,7.274039E-002,7.274039E-002,7.274039E-002,7.274039E-002,7.274039E-002,7.274039E-002,7.274039E-002,7.274039E-002,
   **   ~~~   ** Supply-to-demand interface deck 1 mass flow rate check value iteration history trace: 7.274039E-002,7.274039E-002,7.274039E-002,7.274039E-002,7.274039E-002,7.274039E-002,7.274039E-002,7.274039E-002,7.274039E-002,7.274039E-002,
   **   ~~~   ** Air System Named = CENTRAL SYSTEM did not converge for energy
   **   ~~~   ** Check values should be zero. Most Recent values listed first.
   **   ~~~   ** Demand-to-Supply interface energy check value iteration history trace: 1437.434722,1437.434722,1437.434722,1437.434722,1437.434721,1437.434721,1437.434721,1437.434721,1437.434721,1437.434721,
   **   ~~~   ** Supply-to-demand interface deck 1 energy check value iteration history trace: 2507.669444,2507.669444,2507.669444,2507.669443,2507.669443,2507.669443,2507.669443,2507.669443,2507.669443,2507.669443,
   ** Warning ** SimHVAC: Maximum iterations (20) exceeded for all HVAC loops, at ANNUAL, 11/08 06:30 - 06:38
   **   ~~~   ** The solution for one or more of the Air Loop HVAC systems did not appear to converge
   **   ~~~   ** Air System Named = CENTRAL SYSTEM did not converge for energy
   **   ~~~   ** Check values should be zero. Most Recent values listed first.
   **   ~~~   ** Demand-to-Supply interface energy check value iteration history trace: 114.389709,114.389709,114.389709,114.389709,114.389709,114.389709,114.389709,114.389709,114.389709,114.389709,
   **   ~~~   ** Supply-to-demand interface deck 1 energy check value iteration history trace: 197.034495,197.034495,197.034495,197.034495,197.034495,197.034495,197.034495,197.034495,197.034495,197.034495,
   ** Warning ** SimHVAC: Maximum iterations (20) exceeded for all HVAC loops, at ANNUAL, 11/16 07:30 - 07:38
   **   ~~~   ** The solution for one or more of the Air Loop HVAC systems did not appear to converge
   **   ~~~   ** Air System Named = CENTRAL SYSTEM did not converge for mass flow rate
   **   ~~~   ** Check values should be zero. Most Recent values listed first.
   **   ~~~   ** Demand-to-Supply interface mass flow rate check value iteration history trace: 6.829509E-002,6.829509E-002,6.829509E-002,6.829509E-002,6.829509E-002,6.829509E-002,6.829509E-002,6.829509E-002,6.829509E-002,6.829509E-002,
   **   ~~~   ** Supply-to-demand interface deck 1 mass flow rate check value iteration history trace: 6.829509E-002,6.829509E-002,6.829509E-002,6.829509E-002,6.829509E-002,6.829509E-002,6.829509E-002,6.829509E-002,6.829509E-002,6.829509E-002,
   **   ~~~   ** Air System Named = CENTRAL SYSTEM did not converge for energy
   **   ~~~   ** Check values should be zero. Most Recent values listed first.
   **   ~~~   ** Demand-to-Supply interface energy check value iteration history trace: 1330.952284,1330.952284,1330.952284,1330.952284,1330.952284,1330.952284,1330.952284,1330.952284,1330.952284,1330.952284,
   **   ~~~   ** Supply-to-demand interface deck 1 energy check value iteration history trace: 2346.574828,2346.574828,2346.574828,2346.574828,2346.574828,2346.574828,2346.574828,2346.574828,2346.574828,2346.574828,
   ** Warning ** SimHVAC: Maximum iterations (20) exceeded for all HVAC loops, at ANNUAL, 11/18 09:15 - 09:30
   **   ~~~   ** The solution for one or more of the Air Loop HVAC systems did not appear to converge
   **   ~~~   ** Air System Named = CENTRAL SYSTEM did not converge for mass flow rate
   **   ~~~   ** Check values should be zero. Most Recent values listed first.
   **   ~~~   ** Demand-to-Supply interface mass flow rate check value iteration history trace: 6.140136E-002,6.140136E-002,6.140136E-002,6.140136E-002,6.140136E-002,6.140136E-002,6.140136E-002,6.140136E-002,6.140136E-002,6.140136E-002,
   **   ~~~   ** Supply-to-demand interface deck 1 mass flow rate check value iteration history trace: 6.140136E-002,6.140136E-002,6.140136E-002,6.140136E-002,6.140136E-002,6.140136E-002,6.140136E-002,6.140136E-002,6.140136E-002,6.140136E-002,
   **   ~~~   ** Air System Named = CENTRAL SYSTEM did not converge for energy
   **   ~~~   ** Check values should be zero. Most Recent values listed first.
   **   ~~~   ** Demand-to-Supply interface energy check value iteration history trace: 1214.994461,1214.994461,1214.994461,1214.994461,1214.994461,1214.994461,1214.994461,1214.994461,1214.994461,1214.994461,
   **   ~~~   ** Supply-to-demand interface deck 1 energy check value iteration history trace: 2145.834924,2145.834924,2145.834924,2145.834924,2145.834924,2145.834924,2145.834923,2145.834923,2145.834923,2145.834923,
   ** Warning ** SimHVAC: Maximum iterations (20) exceeded for all HVAC loops, at ANNUAL, 11/29 07:30 - 07:45
   **   ~~~   ** The solution for one or more of the Air Loop HVAC systems did not appear to converge
   **   ~~~   ** Air System Named = CENTRAL SYSTEM did not converge for mass flow rate
   **   ~~~   ** Check values should be zero. Most Recent values listed first.
   **   ~~~   ** Demand-to-Supply interface mass flow rate check value iteration history trace: 7.341509E-002,7.341509E-002,7.341509E-002,7.341509E-002,7.341509E-002,7.341509E-002,7.341509E-002,7.341509E-002,7.341509E-002,7.341509E-002,
   **   ~~~   ** Supply-to-demand interface deck 1 mass flow rate check value iteration history trace: 7.341509E-002,7.341509E-002,7.341509E-002,7.341509E-002,7.341509E-002,7.341509E-002,7.341509E-002,7.341509E-002,7.341509E-002,7.341509E-002,
   **   ~~~   ** Air System Named = CENTRAL SYSTEM did not converge for energy
   **   ~~~   ** Check values should be zero. Most Recent values listed first.
   **   ~~~   ** Demand-to-Supply interface energy check value iteration history trace: 1455.628832,1455.628832,1455.628832,1455.628832,1455.628832,1455.628832,1455.628832,1455.628832,1455.628832,1455.628832,
   **   ~~~   ** Supply-to-demand interface deck 1 energy check value iteration history trace: 2530.765196,2530.765196,2530.765196,2530.765196,2530.765196,2530.765196,2530.765195,2530.765195,2530.765195,2530.765195,
   ************* Simulation Error Summary *************
   ** Warning ** The following Report Variables were requested but not generated -- check.rdd file
   **   ~~~   ** Either the IDF did not contain these elements, the variable name is misspelled,
   **   ~~~   ** or the requested variable is an advanced output which requires Output : Diagnostics, DisplayAdvancedReportVariables;
   ************* Key=*, VarName=BASEBOARD TOTAL HEATING ENERGY, Frequency=
   ************* Key=*, VarName=WATER HEATER NATURALGAS ENERGY, Frequency=
   ************* Key=*, VarName=COOLING COIL TOTAL HEATING ENERGY, Frequency=
   ************* There are 34 unused schedules in input.
   ************* There are 388 unused week schedules in input.
   ************* There are 396 unused day schedules in input.
   ************* Use Output:Diagnostics,DisplayUnusedSchedules; to see them.
   *************
   ************* ===== Recurring Error Summary =====
   ************* The following recurring error messages occurred.
   *************
   *************  ** Warning ** "TOTAL HOT WATER LOAD" - Target water temperature should be less than or equal to the hot water temperature error continues...
   *************  **   ~~~   **   This error occurred 104697 total times;
   *************  **   ~~~   **   during Warmup 0 times;
   *************  **   ~~~   **   during Sizing 0 times.
   *************  **   ~~~   **   Max=8.465865  Min=1.759519E-004
   *************
   *************
   ************* ===== Final Error Summary =====
   ************* The following error categories occurred.  Consider correcting or noting.
   ************* Nominally Unused Constructions
   ************* ..The nominally unused constructions warning is provided to alert you to potential conditions that can cause
   ************* ..extra time during simulation. Each construction is calculated by the algorithm indicated in the HeatBalanceAlgorithm
   ************* ..object. You may remove the constructions indicated (when you use the DisplayExtraWarnings option).
   *************
   ************* EnergyPlus Warmup Error Summary. During Warmup: 1 Warning; 0 Severe Errors.
   ************* EnergyPlus Sizing Error Summary. During Sizing: 4 Warning; 0 Severe Errors.
   ************* EnergyPlus Completed Successfully-- 104723 Warning; 0 Severe Errors; Elapsed Time=00hr 05min 50.15sec
