Program Version,EnergyPlus, Version 22.2.0-c249759bad, YMD=2023.09.01 14:43,
   ************* Beginning Zone Sizing Calculations
   ** Warning ** ProcessScheduleInput: Schedule:Constant="ALWAYS ON DISCRETE", Schedule Type Limits Name="ONOFF" not found -- will not be validated
   ** Warning ** Foundation:Kiva="KIVA FOUNDATION", no Interior Horizontal Insulation Material Name defined
   **   ~~~   ** Interior Horizontal Insulation Depth will not be used.
   ** Warning ** CheckUsedConstructions: There are 15 nominally unused constructions in input.
   **   ~~~   ** Each Unused construction is shown.
   ************* Construction=INTERIOR FLOOR
   ************* Construction=INTERIOR WINDOW
   ************* Construction=EXTERIOR DOOR
   ************* Construction=INTERIOR DOOR
   ************* Construction=GABLE CONSTRUCTION
   ************* Construction=CRAWL_FLOOR
   ************* Construction=INSULATED PIPE
   ************* Construction=PLAIN PIPE
   ************* Construction=TDD PIPE
   ************* Construction=TDD DOME
   ************* Construction=TDD DIFFUSER
   ************* Construction=CRAWL WALL
   ************* Construction=CEILING-FLOOR-LAYER
   ************* Construction=SLAB CONSTRUCTION W FULL R10 INSULATION
   ************* Construction=SLAB CONSTRUCTION W FULL R5 INSULATION
   ** Warning ** GetDXCoils: Coil:Heating:DX:SingleSpeed="DX_HEATING_COIL" curve values
   **   ~~~   ** ... Defrost Energy Input Ratio Function of Temperature Curve Name = DEFROSTEIR output is not equal to 1.0 (+ or - 10%) at rated conditions.
   **   ~~~   ** ... Curve output at rated conditions = 0.152
   ************* Beginning System Sizing Calculations
   ************* Beginning Plant Sizing Calculations
   ** Warning ** SizeDXCoil Coil:Cooling:DX:SingleSpeed DX_COOLING_COIL
   **   ~~~   ** ...Gross Rated Total Cooling Capacity [W] will be limited by the maximum rated volume flow per rated total capacity ratio.
   **   ~~~   ** ...DX coil volume flow rate ( m3/s ) = 0.469791
   **   ~~~   ** ...Requested capacity ( W ) = 7333.135
   **   ~~~   ** ...Requested flow/capacity ratio ( m3/s/W ) = 6.406E-005
   **   ~~~   ** ...Maximum flow/capacity ratio ( m3/s/W ) = 6.041E-005
   **   ~~~   ** ...Adjusted capacity ( W ) = 7776.722
   ** Warning ** SizeDXCoil Coil:Heating:DX:SingleSpeed DX_HEATING_COIL
   **   ~~~   ** ...Gross Rated Heating Capacity [W] will be limited by the maximum rated volume flow per rated total capacity ratio.
   **   ~~~   ** ...DX coil volume flow rate ( m3/s ) = 0.469791
   **   ~~~   ** ...Requested capacity ( W ) = 7776.722
   **   ~~~   ** ...Requested flow/capacity ratio ( m3/s/W ) = 6.041E-005
   **   ~~~   ** ...Maximum flow/capacity ratio ( m3/s/W ) = 6.041E-005
   **   ~~~   ** ...Adjusted capacity ( W ) = 7776.722
   ** Warning ** Coil:WaterHeating:AirToWaterHeatPump:Wrapped "HEAT PUMP WATER HEATER EVAPORATOR": Rated air volume flow rate per watt of rated total water heating capacity is out of range
   **   ~~~   ** Min Rated Vol Flow Per Watt=[4.027E-005], Rated Vol Flow Per Watt=[1.386E-004], Max Rated Vol Flow Per Watt=[8.056E-005]. See Input-Output Reference Manual for valid range.
   ** Warning ** Water heater = WATER HEATER TANK:  Recovery Efficiency and Energy Factor could not be calculated during the test for standard ratings
   **   ~~~   ** Setpoint was never recovered and/or heater never turned on
   ** Warning ** Check input. Pump nominal power or motor efficiency is set to 0, for pump=MAINS PRESSURE
   ** Warning ** Output:Meter: invalid Key Name="ELECTRIC_RANGE:INTERIOREQUIPMENT:ELECTRICITY" - not found.
   ** Warning ** Output:Meter: invalid Key Name="ELECTRIC_DRYER:INTERIOREQUIPMENT:ELECTRICITY" - not found.
   ** Warning ** Output:Meter: invalid Key Name="HEATRECOVERY:ELECTRICITY" - not found.
   ** Warning ** Output:Meter: invalid Key Name="HEATING:NATURALGAS" - not found.
   ** Warning ** Output:Meter: invalid Key Name="WATERSYSTEMS:NATURALGAS" - not found.
   ** Warning ** Output:Meter: invalid Key Name="PROPANE:FACILITY" - not found.
   ** Warning ** Output:Meter: invalid Key Name="HEATING:PROPANE" - not found.
   ************* Testing Individual Branch Integrity
   ************* All Branches passed integrity testing
   ************* Testing Individual Supply Air Path Integrity
   ************* All Supply Air Paths passed integrity testing
   ************* Testing Individual Return Air Path Integrity
   ************* All Return Air Paths passed integrity testing
   ************* No node connection errors were found.
   ************* Beginning Simulation
   ** Warning ** AirflowNetwork::Solver::validate_distribution: Heat pump water heater is simulated along with an AirflowNetwork but is not included in the AirflowNetwork.
   ** Warning ** CalcEquipmentFlowRates: "TOTAL HOT WATER LOAD" - Target water temperature is greater than the hot water temperature by (1.71 C)
   **   ~~~   **  Environment=EXTREME_WINTER, at Simulation time=02/15 06:00 - 06:15
   **   ~~~   ** ...target water temperature     = 53.33 C
   **   ~~~   ** ...hot water temperature        = 51.63 C
   **   ~~~   ** ...Target water temperature should be less than or equal to the hot water temperature. Verify temperature setpoints and schedules.
   ** Warning ** SimHVAC: Maximum iterations (20) exceeded for all HVAC loops, at ANNUAL, 01/02 20:30 - 20:45
   **   ~~~   ** The solution for one or more of the Air Loop HVAC systems did not appear to converge
   **   ~~~   ** Air System Named = CENTRAL SYSTEM did not converge for mass flow rate
   **   ~~~   ** Check values should be zero. Most Recent values listed first.
   **   ~~~   ** Demand-to-Supply interface mass flow rate check value iteration history trace: 2.064128E-002,2.064128E-002,2.064128E-002,2.064128E-002,2.064128E-002,2.064128E-002,2.064128E-002,2.064128E-002,2.064128E-002,2.064128E-002,
   **   ~~~   ** Supply-to-demand interface deck 1 mass flow rate check value iteration history trace: 2.064128E-002,2.064128E-002,2.064128E-002,2.064128E-002,2.064128E-002,2.064128E-002,2.064128E-002,2.064128E-002,2.064128E-002,2.064128E-002,
   **   ~~~   ** Air System Named = CENTRAL SYSTEM did not converge for energy
   **   ~~~   ** Check values should be zero. Most Recent values listed first.
   **   ~~~   ** Demand-to-Supply interface energy check value iteration history trace: 404.035813,404.035813,404.035813,404.035813,404.035813,404.035813,404.035813,404.035813,404.035813,404.035813,
   **   ~~~   ** Supply-to-demand interface deck 1 energy check value iteration history trace: 698.947434,698.947434,698.947434,698.947434,698.947434,698.947434,698.947434,698.947434,698.947434,698.947434,
   ** Warning ** SimHVAC: Maximum iterations (20) exceeded for all HVAC loops, at ANNUAL, 01/08 11:04 - 11:08
   **   ~~~   ** The solution for one or more of the Air Loop HVAC systems did not appear to converge
   **   ~~~   ** Air System Named = CENTRAL SYSTEM did not converge for mass flow rate
   **   ~~~   ** Check values should be zero. Most Recent values listed first.
   **   ~~~   ** Demand-to-Supply interface mass flow rate check value iteration history trace: 6.745491E-002,6.745491E-002,6.745491E-002,6.745491E-002,6.745491E-002,6.745491E-002,6.745491E-002,6.745491E-002,6.745491E-002,6.745491E-002,
   **   ~~~   ** Supply-to-demand interface deck 1 mass flow rate check value iteration history trace: 6.745491E-002,6.745491E-002,6.745491E-002,6.745491E-002,6.745491E-002,6.745491E-002,6.745491E-002,6.745491E-002,6.745491E-002,6.745491E-002,
   **   ~~~   ** Air System Named = CENTRAL SYSTEM did not converge for energy
   **   ~~~   ** Check values should be zero. Most Recent values listed first.
   **   ~~~   ** Demand-to-Supply interface energy check value iteration history trace: 1336.791462,1336.791462,1336.791462,1336.791462,1336.791462,1336.791462,1336.791462,1336.791462,1336.791462,1336.791462,
   **   ~~~   ** Supply-to-demand interface deck 1 energy check value iteration history trace: 2374.692111,2374.692111,2374.692111,2374.692111,2374.692111,2374.692111,2374.692111,2374.692111,2374.692111,2374.692111,
   ** Warning ** SimHVAC: Maximum iterations (20) exceeded for all HVAC loops, at ANNUAL, 01/13 06:15 - 06:30
   **   ~~~   ** The solution for one or more of the Air Loop HVAC systems did not appear to converge
   **   ~~~   ** Air System Named = CENTRAL SYSTEM did not converge for mass flow rate
   **   ~~~   ** Check values should be zero. Most Recent values listed first.
   **   ~~~   ** Demand-to-Supply interface mass flow rate check value iteration history trace: 7.707107E-002,7.707107E-002,7.707107E-002,7.707107E-002,7.707107E-002,7.707107E-002,7.707107E-002,7.707107E-002,7.707107E-002,7.707107E-002,
   **   ~~~   ** Supply-to-demand interface deck 1 mass flow rate check value iteration history trace: 7.707107E-002,7.707107E-002,7.707107E-002,7.707107E-002,7.707107E-002,7.707107E-002,7.707107E-002,7.707107E-002,7.707107E-002,7.707107E-002,
   **   ~~~   ** Air System Named = CENTRAL SYSTEM did not converge for energy
   **   ~~~   ** Check values should be zero. Most Recent values listed first.
   **   ~~~   ** Demand-to-Supply interface energy check value iteration history trace: 1516.692222,1516.692222,1516.692222,1516.692221,1516.692221,1516.692221,1516.692221,1516.692221,1516.692221,1516.692221,
   **   ~~~   ** Supply-to-demand interface deck 1 energy check value iteration history trace: 2694.663969,2694.663969,2694.663969,2694.663969,2694.663969,2694.663969,2694.663969,2694.663969,2694.663969,2694.663969,
   ** Warning ** SimHVAC: Maximum iterations (20) exceeded for all HVAC loops, at ANNUAL, 01/13 07:30 - 07:45
   **   ~~~   ** The solution for one or more of the Air Loop HVAC systems did not appear to converge
   **   ~~~   ** Air System Named = CENTRAL SYSTEM did not converge for mass flow rate
   **   ~~~   ** Check values should be zero. Most Recent values listed first.
   **   ~~~   ** Demand-to-Supply interface mass flow rate check value iteration history trace: 4.111745E-002,4.111745E-002,4.111745E-002,4.111745E-002,4.111745E-002,4.111745E-002,4.111745E-002,4.111745E-002,4.111745E-002,4.111745E-002,
   **   ~~~   ** Supply-to-demand interface deck 1 mass flow rate check value iteration history trace: 4.111745E-002,4.111745E-002,4.111745E-002,4.111745E-002,4.111745E-002,4.111745E-002,4.111745E-002,4.111745E-002,4.111745E-002,4.111745E-002,
   **   ~~~   ** Air System Named = CENTRAL SYSTEM did not converge for energy
   **   ~~~   ** Check values should be zero. Most Recent values listed first.
   **   ~~~   ** Demand-to-Supply interface energy check value iteration history trace: 803.895784,803.895784,803.895784,803.895784,803.895784,803.895784,803.895784,803.895784,803.895784,803.895784,
   **   ~~~   ** Supply-to-demand interface deck 1 energy check value iteration history trace: 1434.596512,1434.596512,1434.596512,1434.596512,1434.596512,1434.596512,1434.596512,1434.596512,1434.596512,1434.596512,
   ** Warning ** SimHVAC: Maximum iterations (20) exceeded for all HVAC loops, at ANNUAL, 01/24 07:00 - 07:15
   **   ~~~   ** The solution for one or more of the Air Loop HVAC systems did not appear to converge
   **   ~~~   ** Air System Named = CENTRAL SYSTEM did not converge for mass flow rate
   **   ~~~   ** Check values should be zero. Most Recent values listed first.
   **   ~~~   ** Demand-to-Supply interface mass flow rate check value iteration history trace: 7.621156E-002,7.621156E-002,7.621156E-002,7.621156E-002,7.621156E-002,7.621156E-002,7.621156E-002,7.621156E-002,7.621156E-002,7.621156E-002,
   **   ~~~   ** Supply-to-demand interface deck 1 mass flow rate check value iteration history trace: 7.621156E-002,7.621156E-002,7.621156E-002,7.621156E-002,7.621156E-002,7.621156E-002,7.621156E-002,7.621156E-002,7.621156E-002,7.621156E-002,
   **   ~~~   ** Air System Named = CENTRAL SYSTEM did not converge for energy
   **   ~~~   ** Check values should be zero. Most Recent values listed first.
   **   ~~~   ** Demand-to-Supply interface energy check value iteration history trace: 1509.810517,1509.810517,1509.810516,1509.810516,1509.810516,1509.810516,1509.810516,1509.810516,1509.810516,1509.810516,
   **   ~~~   ** Supply-to-demand interface deck 1 energy check value iteration history trace: 2594.047896,2594.047896,2594.047896,2594.047896,2594.047896,2594.047896,2594.047896,2594.047895,2594.047895,2594.047895,
   ** Warning ** SimHVAC: Maximum iterations (20) exceeded for all HVAC loops, at ANNUAL, 01/26 07:45 - 07:52
   **   ~~~   ** The solution for one or more of the Air Loop HVAC systems did not appear to converge
   **   ~~~   ** Air System Named = CENTRAL SYSTEM did not converge for mass flow rate
   **   ~~~   ** Check values should be zero. Most Recent values listed first.
   **   ~~~   ** Demand-to-Supply interface mass flow rate check value iteration history trace: 6.224087E-002,6.224087E-002,6.224087E-002,6.224087E-002,6.224087E-002,6.224087E-002,6.224087E-002,6.224087E-002,6.224087E-002,6.224087E-002,
   **   ~~~   ** Supply-to-demand interface deck 1 mass flow rate check value iteration history trace: 6.224087E-002,6.224087E-002,6.224087E-002,6.224087E-002,6.224087E-002,6.224087E-002,6.224087E-002,6.224087E-002,6.224087E-002,6.224087E-002,
   **   ~~~   ** Air System Named = CENTRAL SYSTEM did not converge for energy
   **   ~~~   ** Check values should be zero. Most Recent values listed first.
   **   ~~~   ** Demand-to-Supply interface energy check value iteration history trace: 1224.551742,1224.551742,1224.551742,1224.551742,1224.551742,1224.551742,1224.551742,1224.551742,1224.551742,1224.551742,
   **   ~~~   ** Supply-to-demand interface deck 1 energy check value iteration history trace: 2337.116619,2337.116619,2337.116619,2337.116619,2337.116619,2337.116619,2337.116619,2337.116619,2337.116619,2337.116619,
   ** Warning ** SimHVAC: Maximum iterations (20) exceeded for all HVAC loops, at ANNUAL, 02/01 07:45 - 08:00
   **   ~~~   ** The solution for one or more of the Air Loop HVAC systems did not appear to converge
   **   ~~~   ** Air System Named = CENTRAL SYSTEM did not converge for mass flow rate
   **   ~~~   ** Check values should be zero. Most Recent values listed first.
   **   ~~~   ** Demand-to-Supply interface mass flow rate check value iteration history trace: 7.699172E-002,7.699172E-002,7.699172E-002,7.699172E-002,7.699172E-002,7.699172E-002,7.699172E-002,7.699172E-002,7.699172E-002,7.699172E-002,
   **   ~~~   ** Supply-to-demand interface deck 1 mass flow rate check value iteration history trace: 7.699172E-002,7.699172E-002,7.699172E-002,7.699172E-002,7.699172E-002,7.699172E-002,7.699172E-002,7.699172E-002,7.699172E-002,7.699172E-002,
   **   ~~~   ** Air System Named = CENTRAL SYSTEM did not converge for energy
   **   ~~~   ** Check values should be zero. Most Recent values listed first.
   **   ~~~   ** Demand-to-Supply interface energy check value iteration history trace: 1525.583465,1525.583465,1525.583465,1525.583465,1525.583465,1525.583465,1525.583465,1525.583465,1525.583465,1525.583465,
   **   ~~~   ** Supply-to-demand interface deck 1 energy check value iteration history trace: 2588.378587,2588.378587,2588.378587,2588.378586,2588.378586,2588.378586,2588.378586,2588.378586,2588.378586,2588.378586,
   ** Warning ** SimHVAC: Maximum iterations (20) exceeded for all HVAC loops, at ANNUAL, 02/13 07:15 - 07:30
   **   ~~~   ** The solution for one or more of the Air Loop HVAC systems did not appear to converge
   **   ~~~   ** Air System Named = CENTRAL SYSTEM did not converge for mass flow rate
   **   ~~~   ** Check values should be zero. Most Recent values listed first.
   **   ~~~   ** Demand-to-Supply interface mass flow rate check value iteration history trace: 6.399122E-002,6.399122E-002,6.399122E-002,6.399122E-002,6.399122E-002,6.399122E-002,6.399122E-002,6.399122E-002,6.399122E-002,6.399122E-002,
   **   ~~~   ** Supply-to-demand interface deck 1 mass flow rate check value iteration history trace: 6.399122E-002,6.399122E-002,6.399122E-002,6.399122E-002,6.399122E-002,6.399122E-002,6.399122E-002,6.399122E-002,6.399122E-002,6.399122E-002,
   **   ~~~   ** Air System Named = CENTRAL SYSTEM did not converge for energy
   **   ~~~   ** Check values should be zero. Most Recent values listed first.
   **   ~~~   ** Demand-to-Supply interface energy check value iteration history trace: 1253.206145,1253.206145,1253.206145,1253.206145,1253.206145,1253.206145,1253.206145,1253.206145,1253.206145,1253.206145,
   **   ~~~   ** Supply-to-demand interface deck 1 energy check value iteration history trace: 2231.203053,2231.203053,2231.203053,2231.203053,2231.203053,2231.203053,2231.203052,2231.203052,2231.203052,2231.203052,
   ** Warning ** SimHVAC: Maximum iterations (20) exceeded for all HVAC loops, at ANNUAL, 04/08 17:50 - 17:55
   **   ~~~   ** The solution for one or more of the Air Loop HVAC systems did not appear to converge
   **   ~~~   ** Air System Named = CENTRAL SYSTEM did not converge for mass flow rate
   **   ~~~   ** Check values should be zero. Most Recent values listed first.
   **   ~~~   ** Demand-to-Supply interface mass flow rate check value iteration history trace: 0.105215,0.105215,0.105215,0.105215,0.105215,0.105215,0.105215,0.105215,0.105215,0.105215,
   **   ~~~   ** Supply-to-demand interface deck 1 mass flow rate check value iteration history trace: 0.105215,0.105215,0.105215,0.105215,0.105215,0.105215,0.105215,0.105215,0.105215,0.105215,
   **   ~~~   ** Air System Named = CENTRAL SYSTEM did not converge for energy
   **   ~~~   ** Check values should be zero. Most Recent values listed first.
   **   ~~~   ** Demand-to-Supply interface energy check value iteration history trace: 2496.935451,2496.935451,2496.935452,2496.935452,2496.935452,2496.935452,2496.935452,2496.935452,2496.935453,2496.935453,
   **   ~~~   ** Supply-to-demand interface deck 1 energy check value iteration history trace: 989.105243,989.105243,989.105243,989.105244,989.105244,989.105244,989.105244,989.105244,989.105244,989.105244,
   ************* Simulation Error Summary *************
   ** Warning ** The following Report Variables were requested but not generated -- check.rdd file
   **   ~~~   ** Either the IDF did not contain these elements, the variable name is misspelled,
   **   ~~~   ** or the requested variable is an advanced output which requires Output : Diagnostics, DisplayAdvancedReportVariables;
   ************* Key=*, VarName=BASEBOARD TOTAL HEATING ENERGY, Frequency=
   ************* Key=*, VarName=WATER HEATER NATURALGAS ENERGY, Frequency=
   ************* Key=*, VarName=COOLING COIL TOTAL HEATING ENERGY, Frequency=
   ************* There are 34 unused schedules in input.
   ************* There are 388 unused week schedules in input.
   ************* There are 396 unused day schedules in input.
   ************* Use Output:Diagnostics,DisplayUnusedSchedules; to see them.
   *************
   ************* ===== Recurring Error Summary =====
   ************* The following recurring error messages occurred.
   *************
   *************  ** Warning ** "TOTAL HOT WATER LOAD" - Target water temperature should be less than or equal to the hot water temperature error continues...
   *************  **   ~~~   **   This error occurred 148955 total times;
   *************  **   ~~~   **   during Warmup 0 times;
   *************  **   ~~~   **   during Sizing 0 times.
   *************  **   ~~~   **   Max=7.042527  Min=6.120603E-006
   *************
   *************
   ************* ===== Final Error Summary =====
   ************* The following error categories occurred.  Consider correcting or noting.
   ************* Nominally Unused Constructions
   ************* ..The nominally unused constructions warning is provided to alert you to potential conditions that can cause
   ************* ..extra time during simulation. Each construction is calculated by the algorithm indicated in the HeatBalanceAlgorithm
   ************* ..object. You may remove the constructions indicated (when you use the DisplayExtraWarnings option).
   *************
   ************* EnergyPlus Warmup Error Summary. During Warmup: 1 Warning; 0 Severe Errors.
   ************* EnergyPlus Sizing Error Summary. During Sizing: 4 Warning; 0 Severe Errors.
   ************* EnergyPlus Completed Successfully-- 148983 Warning; 0 Severe Errors; Elapsed Time=00hr 06min 51.35sec
