Program Version,EnergyPlus, Version 22.2.0-c249759bad, YMD=2023.09.01 20:06,
   ************* Beginning Zone Sizing Calculations
   ** Warning ** ProcessScheduleInput: Schedule:Constant="ALWAYS ON DISCRETE", Schedule Type Limits Name="ONOFF" not found -- will not be validated
   ** Warning ** Foundation:Kiva="KIVA FOUNDATION", no Interior Horizontal Insulation Material Name defined
   **   ~~~   ** Interior Horizontal Insulation Depth will not be used.
   ** Warning ** CheckUsedConstructions: There are 15 nominally unused constructions in input.
   **   ~~~   ** Each Unused construction is shown.
   ************* Construction=INTERIOR FLOOR
   ************* Construction=INTERIOR WINDOW
   ************* Construction=EXTERIOR DOOR
   ************* Construction=INTERIOR DOOR
   ************* Construction=GABLE CONSTRUCTION
   ************* Construction=CRAWL_FLOOR
   ************* Construction=INSULATED PIPE
   ************* Construction=PLAIN PIPE
   ************* Construction=TDD PIPE
   ************* Construction=TDD DOME
   ************* Construction=TDD DIFFUSER
   ************* Construction=CRAWL WALL
   ************* Construction=CEILING-FLOOR-LAYER
   ************* Construction=SLAB CONSTRUCTION W FULL R10 INSULATION
   ************* Construction=SLAB CONSTRUCTION W FULL R5 INSULATION
   ** Warning ** GetDXCoils: Coil:Heating:DX:SingleSpeed="DX_HEATING_COIL" curve values
   **   ~~~   ** ... Defrost Energy Input Ratio Function of Temperature Curve Name = DEFROSTEIR output is not equal to 1.0 (+ or - 10%) at rated conditions.
   **   ~~~   ** ... Curve output at rated conditions = 0.152
   ************* Beginning System Sizing Calculations
   ************* Beginning Plant Sizing Calculations
   ** Warning ** SizeDXCoil Coil:Cooling:DX:SingleSpeed DX_COOLING_COIL
   **   ~~~   ** ...Gross Rated Total Cooling Capacity [W] will be limited by the maximum rated volume flow per rated total capacity ratio.
   **   ~~~   ** ...DX coil volume flow rate ( m3/s ) = 0.422066
   **   ~~~   ** ...Requested capacity ( W ) = 6834.265
   **   ~~~   ** ...Requested flow/capacity ratio ( m3/s/W ) = 6.175E-005
   **   ~~~   ** ...Maximum flow/capacity ratio ( m3/s/W ) = 6.041E-005
   **   ~~~   ** ...Adjusted capacity ( W ) = 6986.705
   ** Warning ** Coil:WaterHeating:AirToWaterHeatPump:Wrapped "HEAT PUMP WATER HEATER EVAPORATOR": Rated air volume flow rate per watt of rated total water heating capacity is out of range
   **   ~~~   ** Min Rated Vol Flow Per Watt=[4.027E-005], Rated Vol Flow Per Watt=[1.510E-004], Max Rated Vol Flow Per Watt=[8.056E-005]. See Input-Output Reference Manual for valid range.
   ************* SizeFan: : Potential issue with equipment sizing for Fan:OnOff HEAT PUMP WATER HEATER FAN
   **   ~~~   ** User-Specified Maximum Flow Rate [m3/s] = 0.22653
   **   ~~~   ** differs from Design Size Maximum Flow Rate [m3/s] = 7.55250E-002
   **   ~~~   ** This may, or may not, indicate mismatched component sizes.
   **   ~~~   ** Verify that the value entered is intended and is consistent with other components.
   ** Warning ** Water heater = WATER HEATER TANK:  Recovery Efficiency and Energy Factor could not be calculated during the test for standard ratings
   **   ~~~   ** Setpoint was never recovered and/or heater never turned on
   ** Warning ** Check input. Pump nominal power or motor efficiency is set to 0, for pump=MAINS PRESSURE
   ** Warning ** Output:Meter: invalid Key Name="ELECTRIC_RANGE:INTERIOREQUIPMENT:ELECTRICITY" - not found.
   ** Warning ** Output:Meter: invalid Key Name="ELECTRIC_DRYER:INTERIOREQUIPMENT:ELECTRICITY" - not found.
   ** Warning ** Output:Meter: invalid Key Name="HEATRECOVERY:ELECTRICITY" - not found.
   ** Warning ** Output:Meter: invalid Key Name="HEATING:NATURALGAS" - not found.
   ** Warning ** Output:Meter: invalid Key Name="WATERSYSTEMS:NATURALGAS" - not found.
   ** Warning ** Output:Meter: invalid Key Name="PROPANE:FACILITY" - not found.
   ** Warning ** Output:Meter: invalid Key Name="HEATING:PROPANE" - not found.
   ************* Testing Individual Branch Integrity
   ************* All Branches passed integrity testing
   ************* Testing Individual Supply Air Path Integrity
   ************* All Supply Air Paths passed integrity testing
   ************* Testing Individual Return Air Path Integrity
   ************* All Return Air Paths passed integrity testing
   ************* No node connection errors were found.
   ************* Beginning Simulation
   ** Warning ** AirflowNetwork::Solver::validate_distribution: Heat pump water heater is simulated along with an AirflowNetwork but is not included in the AirflowNetwork.
   ** Warning ** CalcEquipmentFlowRates: "TOTAL HOT WATER LOAD" - Target water temperature is greater than the hot water temperature by (4.43 C)
   **   ~~~   **  Environment=EXTREME_WINTER, at Simulation time=01/20 07:00 - 07:15
   **   ~~~   ** ...target water temperature     = 53.33 C
   **   ~~~   ** ...hot water temperature        = 48.91 C
   **   ~~~   ** ...Target water temperature should be less than or equal to the hot water temperature. Verify temperature setpoints and schedules.
   ** Warning ** SimHVAC: Maximum iterations (20) exceeded for all HVAC loops, at EXTREME_WINTER, 01/22 18:00 - 18:05
   **   ~~~   ** The solution for one or more of the Air Loop HVAC systems did not appear to converge
   **   ~~~   ** Air System Named = CENTRAL SYSTEM did not converge for mass flow rate
   **   ~~~   ** Check values should be zero. Most Recent values listed first.
   **   ~~~   ** Demand-to-Supply interface mass flow rate check value iteration history trace: 8.641984E-002,8.641984E-002,8.641984E-002,8.641984E-002,8.641984E-002,8.641984E-002,8.641984E-002,8.641984E-002,8.641984E-002,8.641984E-002,
   **   ~~~   ** Supply-to-demand interface deck 1 mass flow rate check value iteration history trace: 8.641984E-002,8.641984E-002,8.641984E-002,8.641984E-002,8.641984E-002,8.641984E-002,8.641984E-002,8.641984E-002,8.641984E-002,8.641984E-002,
   **   ~~~   ** Air System Named = CENTRAL SYSTEM did not converge for energy
   **   ~~~   ** Check values should be zero. Most Recent values listed first.
   **   ~~~   ** Demand-to-Supply interface energy check value iteration history trace: 1712.515165,1712.515165,1712.515165,1712.515165,1712.515165,1712.515164,1712.515164,1712.515164,1712.515164,1712.515164,
   **   ~~~   ** Supply-to-demand interface deck 1 energy check value iteration history trace: 2561.794927,2561.794927,2561.794927,2561.794927,2561.794927,2561.794927,2561.794926,2561.794926,2561.794926,2561.794926,
   ** Warning ** SimHVAC: Maximum iterations (20) exceeded for all HVAC loops, at EXTREME_SUMMER, 08/20 04:30 - 04:45
   **   ~~~   ** The solution for one or more of the Air Loop HVAC systems did not appear to converge
   **   ~~~   ** Air System Named = CENTRAL SYSTEM did not converge for mass flow rate
   **   ~~~   ** Check values should be zero. Most Recent values listed first.
   **   ~~~   ** Demand-to-Supply interface mass flow rate check value iteration history trace: 1.294677E-002,1.294677E-002,1.294677E-002,1.294677E-002,1.294677E-002,1.294677E-002,1.294677E-002,1.294677E-002,1.294677E-002,1.294677E-002,
   **   ~~~   ** Supply-to-demand interface deck 1 mass flow rate check value iteration history trace: 1.294677E-002,1.294677E-002,1.294677E-002,1.294677E-002,1.294677E-002,1.294677E-002,1.294677E-002,1.294677E-002,1.294677E-002,1.294677E-002,
   **   ~~~   ** Air System Named = CENTRAL SYSTEM did not converge for energy
   **   ~~~   ** Check values should be zero. Most Recent values listed first.
   **   ~~~   ** Demand-to-Supply interface energy check value iteration history trace: 316.377895,316.377895,316.377895,316.377895,316.377895,316.377895,316.377896,316.377896,316.377896,316.377896,
   **   ~~~   ** Supply-to-demand interface deck 1 energy check value iteration history trace: 180.755602,180.755602,180.755602,180.755602,180.755602,180.755603,180.755603,180.755603,180.755603,180.755603,
   ** Warning ** SimHVAC: Maximum iterations (20) exceeded for all HVAC loops, at ANNUAL, 01/02 08:30 - 08:45
   **   ~~~   ** The solution for one or more of the Air Loop HVAC systems did not appear to converge
   **   ~~~   ** Air System Named = CENTRAL SYSTEM did not converge for mass flow rate
   **   ~~~   ** Check values should be zero. Most Recent values listed first.
   **   ~~~   ** Demand-to-Supply interface mass flow rate check value iteration history trace: 8.007517E-002,8.007517E-002,8.007517E-002,8.007517E-002,8.007517E-002,8.007517E-002,8.007517E-002,8.007517E-002,8.007517E-002,8.007517E-002,
   **   ~~~   ** Supply-to-demand interface deck 1 mass flow rate check value iteration history trace: 8.007517E-002,8.007517E-002,8.007517E-002,8.007517E-002,8.007517E-002,8.007517E-002,8.007517E-002,8.007517E-002,8.007517E-002,8.007517E-002,
   **   ~~~   ** Air System Named = CENTRAL SYSTEM did not converge for energy
   **   ~~~   ** Check values should be zero. Most Recent values listed first.
   **   ~~~   ** Demand-to-Supply interface energy check value iteration history trace: 1586.638871,1586.638871,1586.638871,1586.638871,1586.638871,1586.638871,1586.638871,1586.638871,1586.638871,1586.638871,
   **   ~~~   ** Supply-to-demand interface deck 1 energy check value iteration history trace: 2637.513494,2637.513494,2637.513493,2637.513493,2637.513493,2637.513493,2637.513493,2637.513493,2637.513493,2637.513492,
   ** Warning ** SimHVAC: Maximum iterations (20) exceeded for all HVAC loops, at ANNUAL, 01/04 06:00 - 06:15
   **   ~~~   ** The solution for one or more of the Air Loop HVAC systems did not appear to converge
   **   ~~~   ** Air System Named = CENTRAL SYSTEM did not converge for mass flow rate
   **   ~~~   ** Check values should be zero. Most Recent values listed first.
   **   ~~~   ** Demand-to-Supply interface mass flow rate check value iteration history trace: 3.985247E-002,3.985247E-002,3.985247E-002,3.985247E-002,3.985247E-002,3.985247E-002,3.985247E-002,3.985247E-002,3.985247E-002,3.985247E-002,
   **   ~~~   ** Supply-to-demand interface deck 1 mass flow rate check value iteration history trace: 3.985247E-002,3.985247E-002,3.985247E-002,3.985247E-002,3.985247E-002,3.985247E-002,3.985247E-002,3.985247E-002,3.985247E-002,3.985247E-002,
   **   ~~~   ** Air System Named = CENTRAL SYSTEM did not converge for energy
   **   ~~~   ** Check values should be zero. Most Recent values listed first.
   **   ~~~   ** Demand-to-Supply interface energy check value iteration history trace: 788.784640,788.784640,788.784640,788.784640,788.784640,788.784640,788.784640,788.784640,788.784640,788.784640,
   **   ~~~   ** Supply-to-demand interface deck 1 energy check value iteration history trace: 1359.974279,1359.974279,1359.974279,1359.974279,1359.974279,1359.974279,1359.974279,1359.974279,1359.974279,1359.974279,
   ** Warning ** SimHVAC: Maximum iterations (20) exceeded for all HVAC loops, at ANNUAL, 01/13 10:05 - 10:10
   **   ~~~   ** The solution for one or more of the Air Loop HVAC systems did not appear to converge
   **   ~~~   ** Air System Named = CENTRAL SYSTEM did not converge for mass flow rate
   **   ~~~   ** Check values should be zero. Most Recent values listed first.
   **   ~~~   ** Demand-to-Supply interface mass flow rate check value iteration history trace: 5.777700E-002,5.777700E-002,5.777700E-002,5.777700E-002,5.777700E-002,5.777700E-002,5.777700E-002,5.777700E-002,5.777700E-002,5.777700E-002,
   **   ~~~   ** Supply-to-demand interface deck 1 mass flow rate check value iteration history trace: 5.777700E-002,5.777700E-002,5.777700E-002,5.777700E-002,5.777700E-002,5.777700E-002,5.777700E-002,5.777700E-002,5.777700E-002,5.777700E-002,
   **   ~~~   ** Air System Named = CENTRAL SYSTEM did not converge for energy
   **   ~~~   ** Check values should be zero. Most Recent values listed first.
   **   ~~~   ** Demand-to-Supply interface energy check value iteration history trace: 1140.940010,1140.940010,1140.940010,1140.940010,1140.940010,1140.940010,1140.940010,1140.940010,1140.940010,1140.940010,
   **   ~~~   ** Supply-to-demand interface deck 1 energy check value iteration history trace: 2082.670501,2082.670501,2082.670501,2082.670501,2082.670501,2082.670501,2082.670501,2082.670500,2082.670500,2082.670500,
   ** Warning ** SimHVAC: Maximum iterations (20) exceeded for all HVAC loops, at ANNUAL, 01/29 11:15 - 11:18
   **   ~~~   ** The solution for one or more of the Air Loop HVAC systems did not appear to converge
   **   ~~~   ** Air System Named = CENTRAL SYSTEM did not converge for mass flow rate
   **   ~~~   ** Check values should be zero. Most Recent values listed first.
   **   ~~~   ** Demand-to-Supply interface mass flow rate check value iteration history trace: 9.350806E-002,9.350806E-002,9.350806E-002,9.350806E-002,9.350806E-002,9.350806E-002,9.350806E-002,9.350806E-002,9.350806E-002,9.350806E-002,
   **   ~~~   ** Supply-to-demand interface deck 1 mass flow rate check value iteration history trace: 9.350806E-002,9.350806E-002,9.350806E-002,9.350806E-002,9.350806E-002,9.350806E-002,9.350806E-002,9.350806E-002,9.350806E-002,9.350806E-002,
   **   ~~~   ** Air System Named = CENTRAL SYSTEM did not converge for energy
   **   ~~~   ** Check values should be zero. Most Recent values listed first.
   **   ~~~   ** Demand-to-Supply interface energy check value iteration history trace: 1852.950946,1852.950945,1852.950945,1852.950945,1852.950945,1852.950945,1852.950945,1852.950945,1852.950944,1852.950944,
   **   ~~~   ** Supply-to-demand interface deck 1 energy check value iteration history trace: 2768.182554,2768.182554,2768.182554,2768.182554,2768.182553,2768.182553,2768.182553,2768.182553,2768.182553,2768.182552,
   ** Warning ** SimHVAC: Maximum iterations (20) exceeded for all HVAC loops, at ANNUAL, 02/15 08:00 - 08:03
   **   ~~~   ** The solution for one or more of the Air Loop HVAC systems did not appear to converge
   **   ~~~   ** Air System Named = CENTRAL SYSTEM did not converge for mass flow rate
   **   ~~~   ** Check values should be zero. Most Recent values listed first.
   **   ~~~   ** Demand-to-Supply interface mass flow rate check value iteration history trace: 6.852654E-002,6.852654E-002,6.852654E-002,6.852654E-002,6.852654E-002,6.852654E-002,6.852654E-002,6.852654E-002,6.852654E-002,6.852654E-002,
   **   ~~~   ** Supply-to-demand interface deck 1 mass flow rate check value iteration history trace: 6.852654E-002,6.852654E-002,6.852654E-002,6.852654E-002,6.852654E-002,6.852654E-002,6.852654E-002,6.852654E-002,6.852654E-002,6.852654E-002,
   **   ~~~   ** Air System Named = CENTRAL SYSTEM did not converge for energy
   **   ~~~   ** Check values should be zero. Most Recent values listed first.
   **   ~~~   ** Demand-to-Supply interface energy check value iteration history trace: 1358.235932,1358.235932,1358.235932,1358.235932,1358.235932,1358.235932,1358.235932,1358.235932,1358.235932,1358.235932,
   **   ~~~   ** Supply-to-demand interface deck 1 energy check value iteration history trace: 2280.558988,2280.558988,2280.558988,2280.558988,2280.558987,2280.558987,2280.558987,2280.558987,2280.558987,2280.558987,
   ** Warning ** SimHVAC: Maximum iterations (20) exceeded for all HVAC loops, at ANNUAL, 02/21 10:45 - 10:52
   **   ~~~   ** The solution for one or more of the Air Loop HVAC systems did not appear to converge
   **   ~~~   ** Air System Named = CENTRAL SYSTEM did not converge for mass flow rate
   **   ~~~   ** Check values should be zero. Most Recent values listed first.
   **   ~~~   ** Demand-to-Supply interface mass flow rate check value iteration history trace: 8.041504E-002,8.041504E-002,8.041504E-002,8.041504E-002,8.041504E-002,8.041504E-002,8.041504E-002,8.041504E-002,8.041504E-002,8.041504E-002,
   **   ~~~   ** Supply-to-demand interface deck 1 mass flow rate check value iteration history trace: 8.041504E-002,8.041504E-002,8.041504E-002,8.041504E-002,8.041504E-002,8.041504E-002,8.041504E-002,8.041504E-002,8.041504E-002,8.041504E-002,
   **   ~~~   ** Air System Named = CENTRAL SYSTEM did not converge for energy
   **   ~~~   ** Check values should be zero. Most Recent values listed first.
   **   ~~~   ** Demand-to-Supply interface energy check value iteration history trace: 1593.532838,1593.532838,1593.532838,1593.532838,1593.532838,1593.532838,1593.532838,1593.532837,1593.532837,1593.532837,
   **   ~~~   ** Supply-to-demand interface deck 1 energy check value iteration history trace: 2721.434324,2721.434324,2721.434324,2721.434324,2721.434324,2721.434324,2721.434324,2721.434323,2721.434323,2721.434323,
   ** Warning ** SimHVAC: Maximum iterations (20) exceeded for all HVAC loops, at ANNUAL, 02/28 03:00 - 03:15
   **   ~~~   ** The solution for one or more of the Air Loop HVAC systems did not appear to converge
   **   ~~~   ** Air System Named = CENTRAL SYSTEM did not converge for mass flow rate
   **   ~~~   ** Check values should be zero. Most Recent values listed first.
   **   ~~~   ** Demand-to-Supply interface mass flow rate check value iteration history trace: 4.461941E-002,4.461941E-002,4.461941E-002,4.461941E-002,4.461941E-002,4.461941E-002,4.461941E-002,4.461941E-002,4.461941E-002,4.461941E-002,
   **   ~~~   ** Supply-to-demand interface deck 1 mass flow rate check value iteration history trace: 4.461941E-002,4.461941E-002,4.461941E-002,4.461941E-002,4.461941E-002,4.461941E-002,4.461941E-002,4.461941E-002,4.461941E-002,4.461941E-002,
   **   ~~~   ** Air System Named = CENTRAL SYSTEM did not converge for energy
   **   ~~~   ** Check values should be zero. Most Recent values listed first.
   **   ~~~   ** Demand-to-Supply interface energy check value iteration history trace: 833.939526,833.939525,833.939525,833.939525,833.939525,833.939525,833.939525,833.939525,833.939525,833.939525,
   **   ~~~   ** Supply-to-demand interface deck 1 energy check value iteration history trace: 1474.109432,1474.109432,1474.109432,1474.109432,1474.109432,1474.109432,1474.109432,1474.109432,1474.109432,1474.109432,
   ** Warning ** SimHVAC: Maximum iterations (20) exceeded for all HVAC loops, at ANNUAL, 03/01 10:26 - 10:30
   **   ~~~   ** The solution for one or more of the Air Loop HVAC systems did not appear to converge
   **   ~~~   ** Air System Named = CENTRAL SYSTEM did not converge for mass flow rate
   **   ~~~   ** Check values should be zero. Most Recent values listed first.
   **   ~~~   ** Demand-to-Supply interface mass flow rate check value iteration history trace: 7.591399E-002,7.591399E-002,7.591399E-002,7.591399E-002,7.591399E-002,7.591399E-002,7.591399E-002,7.591399E-002,7.591399E-002,7.591399E-002,
   **   ~~~   ** Supply-to-demand interface deck 1 mass flow rate check value iteration history trace: 7.591399E-002,7.591399E-002,7.591399E-002,7.591399E-002,7.591399E-002,7.591399E-002,7.591399E-002,7.591399E-002,7.591399E-002,7.591399E-002,
   **   ~~~   ** Air System Named = CENTRAL SYSTEM did not converge for energy
   **   ~~~   ** Check values should be zero. Most Recent values listed first.
   **   ~~~   ** Demand-to-Supply interface energy check value iteration history trace: 1491.617973,1491.617973,1491.617973,1491.617973,1491.617973,1491.617973,1491.617973,1491.617973,1491.617973,1491.617972,
   **   ~~~   ** Supply-to-demand interface deck 1 energy check value iteration history trace: 2558.605549,2558.605549,2558.605548,2558.605548,2558.605548,2558.605548,2558.605548,2558.605548,2558.605548,2558.605548,
   ** Warning ** SimHVAC: Maximum iterations (20) exceeded for all HVAC loops, at ANNUAL, 03/24 07:00 - 07:08
   **   ~~~   ** The solution for one or more of the Air Loop HVAC systems did not appear to converge
   **   ~~~   ** Air System Named = CENTRAL SYSTEM did not converge for mass flow rate
   **   ~~~   ** Check values should be zero. Most Recent values listed first.
   **   ~~~   ** Demand-to-Supply interface mass flow rate check value iteration history trace: 7.518265E-002,7.518265E-002,7.518265E-002,7.518265E-002,7.518265E-002,7.518265E-002,7.518265E-002,7.518265E-002,7.518265E-002,7.518265E-002,
   **   ~~~   ** Supply-to-demand interface deck 1 mass flow rate check value iteration history trace: 7.518265E-002,7.518265E-002,7.518265E-002,7.518265E-002,7.518265E-002,7.518265E-002,7.518265E-002,7.518265E-002,7.518265E-002,7.518265E-002,
   **   ~~~   ** Air System Named = CENTRAL SYSTEM did not converge for energy
   **   ~~~   ** Check values should be zero. Most Recent values listed first.
   **   ~~~   ** Demand-to-Supply interface energy check value iteration history trace: 1489.640206,1489.640206,1489.640206,1489.640206,1489.640205,1489.640205,1489.640205,1489.640205,1489.640205,1489.640205,
   **   ~~~   ** Supply-to-demand interface deck 1 energy check value iteration history trace: 2332.020729,2332.020729,2332.020728,2332.020728,2332.020728,2332.020728,2332.020728,2332.020728,2332.020728,2332.020727,
   ** Warning ** SimHVAC: Maximum iterations (20) exceeded for all HVAC loops, at ANNUAL, 03/30 11:45 - 11:52
   **   ~~~   ** The solution for one or more of the Air Loop HVAC systems did not appear to converge
   **   ~~~   ** Air System Named = CENTRAL SYSTEM did not converge for mass flow rate
   **   ~~~   ** Check values should be zero. Most Recent values listed first.
   **   ~~~   ** Demand-to-Supply interface mass flow rate check value iteration history trace: 7.016314E-002,7.016314E-002,7.016314E-002,7.016314E-002,7.016314E-002,7.016314E-002,7.016314E-002,7.016314E-002,7.016314E-002,7.016314E-002,
   **   ~~~   ** Supply-to-demand interface deck 1 mass flow rate check value iteration history trace: 7.016314E-002,7.016314E-002,7.016314E-002,7.016314E-002,7.016314E-002,7.016314E-002,7.016314E-002,7.016314E-002,7.016314E-002,7.016314E-002,
   **   ~~~   ** Air System Named = CENTRAL SYSTEM did not converge for energy
   **   ~~~   ** Check values should be zero. Most Recent values listed first.
   **   ~~~   ** Demand-to-Supply interface energy check value iteration history trace: 1390.310331,1390.310331,1390.310331,1390.310331,1390.310331,1390.310331,1390.310331,1390.310331,1390.310331,1390.310331,
   **   ~~~   ** Supply-to-demand interface deck 1 energy check value iteration history trace: 2333.222014,2333.222014,2333.222014,2333.222014,2333.222014,2333.222014,2333.222013,2333.222013,2333.222013,2333.222013,
   ** Warning ** SimHVAC: Maximum iterations (20) exceeded for all HVAC loops, at ANNUAL, 03/30 12:30 - 12:38
   **   ~~~   ** The solution for one or more of the Air Loop HVAC systems did not appear to converge
   **   ~~~   ** Air System Named = CENTRAL SYSTEM did not converge for mass flow rate
   **   ~~~   ** Check values should be zero. Most Recent values listed first.
   **   ~~~   ** Demand-to-Supply interface mass flow rate check value iteration history trace: 6.554182E-002,6.554182E-002,6.554182E-002,6.554182E-002,6.554182E-002,6.554182E-002,6.554182E-002,6.554182E-002,6.554182E-002,6.554182E-002,
   **   ~~~   ** Supply-to-demand interface deck 1 mass flow rate check value iteration history trace: 6.554182E-002,6.554182E-002,6.554182E-002,6.554182E-002,6.554182E-002,6.554182E-002,6.554182E-002,6.554182E-002,6.554182E-002,6.554182E-002,
   **   ~~~   ** Air System Named = CENTRAL SYSTEM did not converge for energy
   **   ~~~   ** Check values should be zero. Most Recent values listed first.
   **   ~~~   ** Demand-to-Supply interface energy check value iteration history trace: 1299.308105,1299.308105,1299.308105,1299.308105,1299.308105,1299.308105,1299.308105,1299.308105,1299.308105,1299.308105,
   **   ~~~   ** Supply-to-demand interface deck 1 energy check value iteration history trace: 2189.788879,2189.788879,2189.788878,2189.788878,2189.788878,2189.788878,2189.788878,2189.788878,2189.788878,2189.788878,
   ** Warning ** SimHVAC: Maximum iterations (20) exceeded for all HVAC loops, at ANNUAL, 11/14 11:00 - 11:15
   **   ~~~   ** The solution for one or more of the Air Loop HVAC systems did not appear to converge
   **   ~~~   ** Air System Named = CENTRAL SYSTEM did not converge for mass flow rate
   **   ~~~   ** Check values should be zero. Most Recent values listed first.
   **   ~~~   ** Demand-to-Supply interface mass flow rate check value iteration history trace: 1.687933E-002,1.687933E-002,1.687933E-002,1.687933E-002,1.687933E-002,1.687933E-002,1.687933E-002,1.687933E-002,1.687933E-002,1.687933E-002,
   **   ~~~   ** Supply-to-demand interface deck 1 mass flow rate check value iteration history trace: 1.687933E-002,1.687933E-002,1.687933E-002,1.687933E-002,1.687933E-002,1.687933E-002,1.687933E-002,1.687933E-002,1.687933E-002,1.687933E-002,
   **   ~~~   ** Air System Named = CENTRAL SYSTEM did not converge for energy
   **   ~~~   ** Check values should be zero. Most Recent values listed first.
   **   ~~~   ** Demand-to-Supply interface energy check value iteration history trace: 394.907986,394.907986,394.907986,394.907986,394.907986,394.907986,394.907986,394.907987,394.907987,394.907987,
   **   ~~~   ** Supply-to-demand interface deck 1 energy check value iteration history trace: 204.166552,204.166552,204.166552,204.166552,204.166552,204.166552,204.166552,204.166552,204.166552,204.166553,
   ************* Simulation Error Summary *************
   ** Warning ** The following Report Variables were requested but not generated -- check.rdd file
   **   ~~~   ** Either the IDF did not contain these elements, the variable name is misspelled,
   **   ~~~   ** or the requested variable is an advanced output which requires Output : Diagnostics, DisplayAdvancedReportVariables;
   ************* Key=*, VarName=BASEBOARD TOTAL HEATING ENERGY, Frequency=
   ************* Key=*, VarName=WATER HEATER NATURALGAS ENERGY, Frequency=
   ************* Key=*, VarName=COOLING COIL TOTAL HEATING ENERGY, Frequency=
   ************* There are 34 unused schedules in input.
   ************* There are 388 unused week schedules in input.
   ************* There are 396 unused day schedules in input.
   ************* Use Output:Diagnostics,DisplayUnusedSchedules; to see them.
   *************
   ************* ===== Recurring Error Summary =====
   ************* The following recurring error messages occurred.
   *************
   *************  ** Warning ** "TOTAL HOT WATER LOAD" - Target water temperature should be less than or equal to the hot water temperature error continues...
   *************  **   ~~~   **   This error occurred 184123 total times;
   *************  **   ~~~   **   during Warmup 0 times;
   *************  **   ~~~   **   during Sizing 0 times.
   *************  **   ~~~   **   Max=12.595525  Min=7.524567E-004
   *************
   *************  ** Warning ** SimHVAC: Exceeding Maximum iterations for all HVAC loops, during ANNUAL continues
   *************  **   ~~~   **   This error occurred 9 total times;
   *************  **   ~~~   **   during Warmup 0 times;
   *************  **   ~~~   **   during Sizing 0 times.
   *************
   *************
   ************* ===== Final Error Summary =====
   ************* The following error categories occurred.  Consider correcting or noting.
   ************* Nominally Unused Constructions
   ************* ..The nominally unused constructions warning is provided to alert you to potential conditions that can cause
   ************* ..extra time during simulation. Each construction is calculated by the algorithm indicated in the HeatBalanceAlgorithm
   ************* ..object. You may remove the constructions indicated (when you use the DisplayExtraWarnings option).
   *************
   ************* EnergyPlus Warmup Error Summary. During Warmup: 1 Warning; 0 Severe Errors.
   ************* EnergyPlus Sizing Error Summary. During Sizing: 4 Warning; 0 Severe Errors.
   ************* EnergyPlus Completed Successfully-- 184164 Warning; 0 Severe Errors; Elapsed Time=00hr 01min 41.43sec
