Program Version,EnergyPlus, Version 22.2.0-c249759bad, YMD=2023.09.01 14:36,
   ************* Beginning Zone Sizing Calculations
   ** Warning ** ProcessScheduleInput: Schedule:Constant="ALWAYS ON DISCRETE", Schedule Type Limits Name="ONOFF" not found -- will not be validated
   ** Warning ** Foundation:Kiva="KIVA FOUNDATION", no Interior Horizontal Insulation Material Name defined
   **   ~~~   ** Interior Horizontal Insulation Depth will not be used.
   ** Warning ** CheckUsedConstructions: There are 15 nominally unused constructions in input.
   **   ~~~   ** Each Unused construction is shown.
   ************* Construction=INTERIOR FLOOR
   ************* Construction=INTERIOR WINDOW
   ************* Construction=EXTERIOR DOOR
   ************* Construction=INTERIOR DOOR
   ************* Construction=GABLE CONSTRUCTION
   ************* Construction=CRAWL_FLOOR
   ************* Construction=INSULATED PIPE
   ************* Construction=PLAIN PIPE
   ************* Construction=TDD PIPE
   ************* Construction=TDD DOME
   ************* Construction=TDD DIFFUSER
   ************* Construction=CRAWL WALL
   ************* Construction=CEILING-FLOOR-LAYER
   ************* Construction=SLAB CONSTRUCTION W FULL R10 INSULATION
   ************* Construction=SLAB CONSTRUCTION W FULL R5 INSULATION
   ** Warning ** GetDXCoils: Coil:Heating:DX:SingleSpeed="DX_HEATING_COIL" curve values
   **   ~~~   ** ... Defrost Energy Input Ratio Function of Temperature Curve Name = DEFROSTEIR output is not equal to 1.0 (+ or - 10%) at rated conditions.
   **   ~~~   ** ... Curve output at rated conditions = 0.152
   ************* Beginning System Sizing Calculations
   ************* Beginning Plant Sizing Calculations
   ** Warning ** SizeDXCoil Coil:Cooling:DX:SingleSpeed DX_COOLING_COIL
   **   ~~~   ** ...Gross Rated Total Cooling Capacity [W] will be limited by the maximum rated volume flow per rated total capacity ratio.
   **   ~~~   ** ...DX coil volume flow rate ( m3/s ) = 0.506226
   **   ~~~   ** ...Requested capacity ( W ) = 6596.368
   **   ~~~   ** ...Requested flow/capacity ratio ( m3/s/W ) = 7.674E-005
   **   ~~~   ** ...Maximum flow/capacity ratio ( m3/s/W ) = 6.041E-005
   **   ~~~   ** ...Adjusted capacity ( W ) = 8379.838
   ** Warning ** Coil:WaterHeating:AirToWaterHeatPump:Wrapped "HEAT PUMP WATER HEATER EVAPORATOR": Rated air volume flow rate per watt of rated total water heating capacity is out of range
   **   ~~~   ** Min Rated Vol Flow Per Watt=[4.027E-005], Rated Vol Flow Per Watt=[1.386E-004], Max Rated Vol Flow Per Watt=[8.056E-005]. See Input-Output Reference Manual for valid range.
   ** Warning ** Water heater = WATER HEATER TANK:  Recovery Efficiency and Energy Factor could not be calculated during the test for standard ratings
   **   ~~~   ** Setpoint was never recovered and/or heater never turned on
   ** Warning ** Check input. Pump nominal power or motor efficiency is set to 0, for pump=MAINS PRESSURE
   ** Warning ** Output:Meter: invalid Key Name="ELECTRIC_RANGE:INTERIOREQUIPMENT:ELECTRICITY" - not found.
   ** Warning ** Output:Meter: invalid Key Name="ELECTRIC_DRYER:INTERIOREQUIPMENT:ELECTRICITY" - not found.
   ** Warning ** Output:Meter: invalid Key Name="HEATRECOVERY:ELECTRICITY" - not found.
   ** Warning ** Output:Meter: invalid Key Name="HEATING:NATURALGAS" - not found.
   ** Warning ** Output:Meter: invalid Key Name="WATERSYSTEMS:NATURALGAS" - not found.
   ** Warning ** Output:Meter: invalid Key Name="PROPANE:FACILITY" - not found.
   ** Warning ** Output:Meter: invalid Key Name="HEATING:PROPANE" - not found.
   ************* Testing Individual Branch Integrity
   ************* All Branches passed integrity testing
   ************* Testing Individual Supply Air Path Integrity
   ************* All Supply Air Paths passed integrity testing
   ************* Testing Individual Return Air Path Integrity
   ************* All Return Air Paths passed integrity testing
   ************* No node connection errors were found.
   ************* Beginning Simulation
   ** Warning ** AirflowNetwork::Solver::validate_distribution: Heat pump water heater is simulated along with an AirflowNetwork but is not included in the AirflowNetwork.
   ** Warning ** CalcEquipmentFlowRates: "TOTAL HOT WATER LOAD" - Target water temperature is greater than the hot water temperature by (1.66 C)
   **   ~~~   **  Environment=EXTREME_WINTER, at Simulation time=01/06 06:00 - 06:15
   **   ~~~   ** ...target water temperature     = 53.33 C
   **   ~~~   ** ...hot water temperature        = 51.67 C
   **   ~~~   ** ...Target water temperature should be less than or equal to the hot water temperature. Verify temperature setpoints and schedules.
   ** Warning ** SimHVAC: Maximum iterations (20) exceeded for all HVAC loops, at ANNUAL, 01/14 10:00 - 10:15
   **   ~~~   ** The solution for one or more of the Air Loop HVAC systems did not appear to converge
   **   ~~~   ** Air System Named = CENTRAL SYSTEM did not converge for mass flow rate
   **   ~~~   ** Check values should be zero. Most Recent values listed first.
   **   ~~~   ** Demand-to-Supply interface mass flow rate check value iteration history trace: 7.787647E-002,7.787647E-002,7.787647E-002,7.787647E-002,7.787647E-002,7.787647E-002,7.787647E-002,7.787647E-002,7.787647E-002,7.787647E-002,
   **   ~~~   ** Supply-to-demand interface deck 1 mass flow rate check value iteration history trace: 7.787647E-002,7.787647E-002,7.787647E-002,7.787647E-002,7.787647E-002,7.787647E-002,7.787647E-002,7.787647E-002,7.787647E-002,7.787647E-002,
   **   ~~~   ** Air System Named = CENTRAL SYSTEM did not converge for energy
   **   ~~~   ** Check values should be zero. Most Recent values listed first.
   **   ~~~   ** Demand-to-Supply interface energy check value iteration history trace: 1543.221942,1543.221942,1543.221942,1543.221942,1543.221942,1543.221942,1543.221942,1543.221942,1543.221942,1543.221942,
   **   ~~~   ** Supply-to-demand interface deck 1 energy check value iteration history trace: 2592.492709,2592.492709,2592.492709,2592.492709,2592.492709,2592.492709,2592.492708,2592.492708,2592.492708,2592.492708,
   ** Warning ** SimHVAC: Maximum iterations (20) exceeded for all HVAC loops, at ANNUAL, 01/15 10:30 - 10:34
   **   ~~~   ** The solution for one or more of the Air Loop HVAC systems did not appear to converge
   **   ~~~   ** Air System Named = CENTRAL SYSTEM did not converge for mass flow rate
   **   ~~~   ** Check values should be zero. Most Recent values listed first.
   **   ~~~   ** Demand-to-Supply interface mass flow rate check value iteration history trace: 7.239232E-002,7.239232E-002,7.239232E-002,7.239232E-002,7.239232E-002,7.239232E-002,7.239232E-002,7.239232E-002,7.239232E-002,7.239232E-002,
   **   ~~~   ** Supply-to-demand interface deck 1 mass flow rate check value iteration history trace: 7.239232E-002,7.239232E-002,7.239232E-002,7.239232E-002,7.239232E-002,7.239232E-002,7.239232E-002,7.239232E-002,7.239232E-002,7.239232E-002,
   **   ~~~   ** Air System Named = CENTRAL SYSTEM did not converge for energy
   **   ~~~   ** Check values should be zero. Most Recent values listed first.
   **   ~~~   ** Demand-to-Supply interface energy check value iteration history trace: 1434.482391,1434.482391,1434.482391,1434.482391,1434.482391,1434.482391,1434.482391,1434.482391,1434.482391,1434.482391,
   **   ~~~   ** Supply-to-demand interface deck 1 energy check value iteration history trace: 2582.674983,2582.674983,2582.674983,2582.674983,2582.674983,2582.674982,2582.674982,2582.674982,2582.674982,2582.674982,
   ** Warning ** SimHVAC: Maximum iterations (20) exceeded for all HVAC loops, at ANNUAL, 01/17 09:32 - 09:35
   **   ~~~   ** The solution for one or more of the Air Loop HVAC systems did not appear to converge
   **   ~~~   ** Air System Named = CENTRAL SYSTEM did not converge for mass flow rate
   **   ~~~   ** Check values should be zero. Most Recent values listed first.
   **   ~~~   ** Demand-to-Supply interface mass flow rate check value iteration history trace: 5.860041E-002,5.860041E-002,5.860041E-002,5.860041E-002,5.860041E-002,5.860041E-002,5.860041E-002,5.860041E-002,5.860041E-002,5.860041E-002,
   **   ~~~   ** Supply-to-demand interface deck 1 mass flow rate check value iteration history trace: 5.860041E-002,5.860041E-002,5.860041E-002,5.860041E-002,5.860041E-002,5.860041E-002,5.860041E-002,5.860041E-002,5.860041E-002,5.860041E-002,
   **   ~~~   ** Air System Named = CENTRAL SYSTEM did not converge for energy
   **   ~~~   ** Check values should be zero. Most Recent values listed first.
   **   ~~~   ** Demand-to-Supply interface energy check value iteration history trace: 1161.284454,1161.284454,1161.284454,1161.284454,1161.284454,1161.284454,1161.284454,1161.284454,1161.284454,1161.284454,
   **   ~~~   ** Supply-to-demand interface deck 1 energy check value iteration history trace: 2090.512298,2090.512298,2090.512297,2090.512297,2090.512297,2090.512297,2090.512297,2090.512297,2090.512297,2090.512297,
   ** Warning ** SimHVAC: Maximum iterations (20) exceeded for all HVAC loops, at ANNUAL, 01/24 09:18 - 09:21
   **   ~~~   ** The solution for one or more of the Air Loop HVAC systems did not appear to converge
   **   ~~~   ** Air System Named = CENTRAL SYSTEM did not converge for mass flow rate
   **   ~~~   ** Check values should be zero. Most Recent values listed first.
   **   ~~~   ** Demand-to-Supply interface mass flow rate check value iteration history trace: 6.927261E-002,6.927261E-002,6.927261E-002,6.927261E-002,6.927261E-002,6.927261E-002,6.927261E-002,6.927261E-002,6.927261E-002,6.927261E-002,
   **   ~~~   ** Supply-to-demand interface deck 1 mass flow rate check value iteration history trace: 6.927261E-002,6.927261E-002,6.927261E-002,6.927261E-002,6.927261E-002,6.927261E-002,6.927261E-002,6.927261E-002,6.927261E-002,6.927261E-002,
   **   ~~~   ** Air System Named = CENTRAL SYSTEM did not converge for energy
   **   ~~~   ** Check values should be zero. Most Recent values listed first.
   **   ~~~   ** Demand-to-Supply interface energy check value iteration history trace: 1372.760341,1372.760341,1372.760341,1372.760341,1372.760341,1372.760341,1372.760341,1372.760341,1372.760341,1372.760341,
   **   ~~~   ** Supply-to-demand interface deck 1 energy check value iteration history trace: 2312.876435,2312.876435,2312.876435,2312.876435,2312.876435,2312.876435,2312.876435,2312.876434,2312.876434,2312.876434,
   ** Warning ** SimHVAC: Maximum iterations (20) exceeded for all HVAC loops, at ANNUAL, 02/11 09:30 - 09:32
   **   ~~~   ** The solution for one or more of the Air Loop HVAC systems did not appear to converge
   **   ~~~   ** Air System Named = CENTRAL SYSTEM did not converge for mass flow rate
   **   ~~~   ** Check values should be zero. Most Recent values listed first.
   **   ~~~   ** Demand-to-Supply interface mass flow rate check value iteration history trace: 6.664426E-002,6.664426E-002,6.664426E-002,6.664426E-002,6.664426E-002,6.664426E-002,6.664426E-002,6.664426E-002,6.664426E-002,6.664426E-002,
   **   ~~~   ** Supply-to-demand interface deck 1 mass flow rate check value iteration history trace: 6.664426E-002,6.664426E-002,6.664426E-002,6.664426E-002,6.664426E-002,6.664426E-002,6.664426E-002,6.664426E-002,6.664426E-002,6.664426E-002,
   **   ~~~   ** Air System Named = CENTRAL SYSTEM did not converge for energy
   **   ~~~   ** Check values should be zero. Most Recent values listed first.
   **   ~~~   ** Demand-to-Supply interface energy check value iteration history trace: 1320.643818,1320.643818,1320.643817,1320.643817,1320.643817,1320.643817,1320.643817,1320.643817,1320.643817,1320.643817,
   **   ~~~   ** Supply-to-demand interface deck 1 energy check value iteration history trace: 2486.183574,2486.183574,2486.183574,2486.183574,2486.183574,2486.183573,2486.183573,2486.183573,2486.183573,2486.183573,
   ** Warning ** Temperature out of range [-100. to 200.] (PsyPsatFnTemp)
   **   ~~~   **  Routine=PsyTwbFnTdbWPb, Environment=ANNUAL, at Simulation time=02/12 05:45 - 05:52
   **   ~~~   **  Input Temperature=-232.28
   ** Warning ** SimHVAC: Maximum iterations (20) exceeded for all HVAC loops, at ANNUAL, 02/19 21:30 - 21:45
   **   ~~~   ** The solution for one or more of the Air Loop HVAC systems did not appear to converge
   **   ~~~   ** Air System Named = CENTRAL SYSTEM did not converge for mass flow rate
   **   ~~~   ** Check values should be zero. Most Recent values listed first.
   **   ~~~   ** Demand-to-Supply interface mass flow rate check value iteration history trace: 7.894230E-002,7.894230E-002,7.894230E-002,7.894230E-002,7.894230E-002,7.894230E-002,7.894230E-002,7.894230E-002,7.894230E-002,7.894230E-002,
   **   ~~~   ** Supply-to-demand interface deck 1 mass flow rate check value iteration history trace: 7.894230E-002,7.894230E-002,7.894230E-002,7.894230E-002,7.894230E-002,7.894230E-002,7.894230E-002,7.894230E-002,7.894230E-002,7.894230E-002,
   **   ~~~   ** Air System Named = CENTRAL SYSTEM did not converge for energy
   **   ~~~   ** Check values should be zero. Most Recent values listed first.
   **   ~~~   ** Demand-to-Supply interface energy check value iteration history trace: 1562.035264,1562.035264,1562.035264,1562.035264,1562.035264,1562.035264,1562.035264,1562.035264,1562.035263,1562.035263,
   **   ~~~   ** Supply-to-demand interface deck 1 energy check value iteration history trace: 2500.108652,2500.108652,2500.108652,2500.108652,2500.108652,2500.108652,2500.108652,2500.108651,2500.108651,2500.108651,
   ** Warning ** SimHVAC: Maximum iterations (20) exceeded for all HVAC loops, at ANNUAL, 02/21 09:30 - 09:45
   **   ~~~   ** The solution for one or more of the Air Loop HVAC systems did not appear to converge
   **   ~~~   ** Air System Named = CENTRAL SYSTEM did not converge for mass flow rate
   **   ~~~   ** Check values should be zero. Most Recent values listed first.
   **   ~~~   ** Demand-to-Supply interface mass flow rate check value iteration history trace: 6.354062E-002,6.354062E-002,6.354062E-002,6.354062E-002,6.354062E-002,6.354062E-002,6.354062E-002,6.354062E-002,6.354062E-002,6.354062E-002,
   **   ~~~   ** Supply-to-demand interface deck 1 mass flow rate check value iteration history trace: 6.354062E-002,6.354062E-002,6.354062E-002,6.354062E-002,6.354062E-002,6.354062E-002,6.354062E-002,6.354062E-002,6.354062E-002,6.354062E-002,
   **   ~~~   ** Air System Named = CENTRAL SYSTEM did not converge for energy
   **   ~~~   ** Check values should be zero. Most Recent values listed first.
   **   ~~~   ** Demand-to-Supply interface energy check value iteration history trace: 1259.188449,1259.188449,1259.188449,1259.188449,1259.188449,1259.188449,1259.188449,1259.188449,1259.188449,1259.188449,
   **   ~~~   ** Supply-to-demand interface deck 1 energy check value iteration history trace: 2120.064080,2120.064080,2120.064080,2120.064080,2120.064080,2120.064080,2120.064080,2120.064080,2120.064080,2120.064079,
   ** Warning ** SimHVAC: Maximum iterations (20) exceeded for all HVAC loops, at ANNUAL, 03/17 06:15 - 06:20
   **   ~~~   ** The solution for one or more of the Air Loop HVAC systems did not appear to converge
   **   ~~~   ** Air System Named = CENTRAL SYSTEM did not converge for mass flow rate
   **   ~~~   ** Check values should be zero. Most Recent values listed first.
   **   ~~~   ** Demand-to-Supply interface mass flow rate check value iteration history trace: 6.694820E-002,6.694820E-002,6.694820E-002,6.694820E-002,6.694820E-002,6.694820E-002,6.694820E-002,6.694820E-002,6.694820E-002,6.694820E-002,
   **   ~~~   ** Supply-to-demand interface deck 1 mass flow rate check value iteration history trace: 6.694820E-002,6.694820E-002,6.694820E-002,6.694820E-002,6.694820E-002,6.694820E-002,6.694820E-002,6.694820E-002,6.694820E-002,6.694820E-002,
   **   ~~~   ** Air System Named = CENTRAL SYSTEM did not converge for energy
   **   ~~~   ** Check values should be zero. Most Recent values listed first.
   **   ~~~   ** Demand-to-Supply interface energy check value iteration history trace: 1326.054349,1326.054349,1326.054349,1326.054349,1326.054348,1326.054348,1326.054348,1326.054348,1326.054348,1326.054348,
   **   ~~~   ** Supply-to-demand interface deck 1 energy check value iteration history trace: 2489.516148,2489.516148,2489.516148,2489.516148,2489.516148,2489.516148,2489.516148,2489.516148,2489.516148,2489.516147,
   ** Warning ** SimHVAC: Maximum iterations (20) exceeded for all HVAC loops, at ANNUAL, 04/27 07:21 - 07:24
   **   ~~~   ** The solution for one or more of the Air Loop HVAC systems did not appear to converge
   **   ~~~   ** Air System Named = CENTRAL SYSTEM did not converge for mass flow rate
   **   ~~~   ** Check values should be zero. Most Recent values listed first.
   **   ~~~   ** Demand-to-Supply interface mass flow rate check value iteration history trace: 6.630488E-002,6.630488E-002,6.630488E-002,6.630488E-002,6.630488E-002,6.630488E-002,6.630488E-002,6.630488E-002,6.630488E-002,6.630488E-002,
   **   ~~~   ** Supply-to-demand interface deck 1 mass flow rate check value iteration history trace: 6.630488E-002,6.630488E-002,6.630488E-002,6.630488E-002,6.630488E-002,6.630488E-002,6.630488E-002,6.630488E-002,6.630488E-002,6.630488E-002,
   **   ~~~   ** Air System Named = CENTRAL SYSTEM did not converge for energy
   **   ~~~   ** Check values should be zero. Most Recent values listed first.
   **   ~~~   ** Demand-to-Supply interface energy check value iteration history trace: 1313.949557,1313.949557,1313.949557,1313.949557,1313.949557,1313.949557,1313.949557,1313.949557,1313.949557,1313.949557,
   **   ~~~   ** Supply-to-demand interface deck 1 energy check value iteration history trace: 2416.193438,2416.193438,2416.193438,2416.193438,2416.193438,2416.193438,2416.193438,2416.193438,2416.193437,2416.193437,
   ** Warning ** SimHVAC: Maximum iterations (20) exceeded for all HVAC loops, at ANNUAL, 05/08 08:02 - 08:04
   **   ~~~   ** The solution for one or more of the Air Loop HVAC systems did not appear to converge
   **   ~~~   ** Air System Named = CENTRAL SYSTEM did not converge for mass flow rate
   **   ~~~   ** Check values should be zero. Most Recent values listed first.
   **   ~~~   ** Demand-to-Supply interface mass flow rate check value iteration history trace: 5.771433E-002,5.771433E-002,5.771433E-002,5.771433E-002,5.771433E-002,5.771433E-002,5.771433E-002,5.771433E-002,5.771433E-002,5.771433E-002,
   **   ~~~   ** Supply-to-demand interface deck 1 mass flow rate check value iteration history trace: 5.771433E-002,5.771433E-002,5.771433E-002,5.771433E-002,5.771433E-002,5.771433E-002,5.771433E-002,5.771433E-002,5.771433E-002,5.771433E-002,
   **   ~~~   ** Air System Named = CENTRAL SYSTEM did not converge for energy
   **   ~~~   ** Check values should be zero. Most Recent values listed first.
   **   ~~~   ** Demand-to-Supply interface energy check value iteration history trace: 1140.373896,1140.373896,1140.373896,1140.373896,1140.373896,1140.373896,1140.373896,1140.373896,1140.373896,1140.373896,
   **   ~~~   ** Supply-to-demand interface deck 1 energy check value iteration history trace: 2151.805963,2151.805963,2151.805963,2151.805963,2151.805963,2151.805963,2151.805963,2151.805963,2151.805963,2151.805963,
   ** Warning ** SimHVAC: Maximum iterations (20) exceeded for all HVAC loops, at ANNUAL, 10/30 07:15 - 07:30
   **   ~~~   ** The solution for one or more of the Air Loop HVAC systems did not appear to converge
   **   ~~~   ** Air System Named = CENTRAL SYSTEM did not converge for mass flow rate
   **   ~~~   ** Check values should be zero. Most Recent values listed first.
   **   ~~~   ** Demand-to-Supply interface mass flow rate check value iteration history trace: 7.826167E-002,7.826167E-002,7.826167E-002,7.826167E-002,7.826167E-002,7.826167E-002,7.826167E-002,7.826167E-002,7.826167E-002,7.826167E-002,
   **   ~~~   ** Supply-to-demand interface deck 1 mass flow rate check value iteration history trace: 7.826167E-002,7.826167E-002,7.826167E-002,7.826167E-002,7.826167E-002,7.826167E-002,7.826167E-002,7.826167E-002,7.826167E-002,7.826167E-002,
   **   ~~~   ** Air System Named = CENTRAL SYSTEM did not converge for energy
   **   ~~~   ** Check values should be zero. Most Recent values listed first.
   **   ~~~   ** Demand-to-Supply interface energy check value iteration history trace: 1551.856857,1551.856857,1551.856857,1551.856857,1551.856857,1551.856857,1551.856857,1551.856857,1551.856856,1551.856856,
   **   ~~~   ** Supply-to-demand interface deck 1 energy check value iteration history trace: 2609.917290,2609.917290,2609.917290,2609.917290,2609.917290,2609.917290,2609.917290,2609.917290,2609.917289,2609.917289,
   ** Warning ** SimHVAC: Maximum iterations (20) exceeded for all HVAC loops, at ANNUAL, 11/05 12:15 - 12:30
   **   ~~~   ** The solution for one or more of the Air Loop HVAC systems did not appear to converge
   **   ~~~   ** Air System Named = CENTRAL SYSTEM did not converge for mass flow rate
   **   ~~~   ** Check values should be zero. Most Recent values listed first.
   **   ~~~   ** Demand-to-Supply interface mass flow rate check value iteration history trace: 8.204984E-002,8.204984E-002,8.204984E-002,8.204984E-002,8.204984E-002,8.204984E-002,8.204984E-002,8.204984E-002,8.204984E-002,8.204984E-002,
   **   ~~~   ** Supply-to-demand interface deck 1 mass flow rate check value iteration history trace: 8.204984E-002,8.204984E-002,8.204984E-002,8.204984E-002,8.204984E-002,8.204984E-002,8.204984E-002,8.204984E-002,8.204984E-002,8.204984E-002,
   **   ~~~   ** Air System Named = CENTRAL SYSTEM did not converge for energy
   **   ~~~   ** Check values should be zero. Most Recent values listed first.
   **   ~~~   ** Demand-to-Supply interface energy check value iteration history trace: 1932.881450,1932.881450,1932.881450,1932.881450,1932.881450,1932.881450,1932.881450,1932.881450,1932.881450,1932.881450,
   **   ~~~   ** Supply-to-demand interface deck 1 energy check value iteration history trace: 587.208891,587.208891,587.208892,587.208892,587.208892,587.208892,587.208892,587.208892,587.208892,587.208892,
   ** Warning ** SimHVAC: Maximum iterations (20) exceeded for all HVAC loops, at ANNUAL, 11/08 06:38 - 06:45
   **   ~~~   ** The solution for one or more of the Air Loop HVAC systems did not appear to converge
   **   ~~~   ** Air System Named = CENTRAL SYSTEM did not converge for mass flow rate
   **   ~~~   ** Check values should be zero. Most Recent values listed first.
   **   ~~~   ** Demand-to-Supply interface mass flow rate check value iteration history trace: 2.660210E-002,2.660210E-002,2.660210E-002,2.660210E-002,2.660210E-002,2.660210E-002,2.660210E-002,2.660210E-002,2.660210E-002,2.660210E-002,
   **   ~~~   ** Supply-to-demand interface deck 1 mass flow rate check value iteration history trace: 2.660210E-002,2.660210E-002,2.660210E-002,2.660210E-002,2.660210E-002,2.660210E-002,2.660210E-002,2.660210E-002,2.660210E-002,2.660210E-002,
   **   ~~~   ** Air System Named = CENTRAL SYSTEM did not converge for energy
   **   ~~~   ** Check values should be zero. Most Recent values listed first.
   **   ~~~   ** Demand-to-Supply interface energy check value iteration history trace: 526.453657,526.453657,526.453657,526.453657,526.453657,526.453657,526.453657,526.453657,526.453657,526.453657,
   **   ~~~   ** Supply-to-demand interface deck 1 energy check value iteration history trace: 881.671974,881.671974,881.671974,881.671974,881.671974,881.671974,881.671974,881.671974,881.671974,881.671974,
   ** Warning ** SimHVAC: Maximum iterations (20) exceeded for all HVAC loops, at ANNUAL, 11/09 08:05 - 08:10
   **   ~~~   ** The solution for one or more of the Air Loop HVAC systems did not appear to converge
   **   ~~~   ** Air System Named = CENTRAL SYSTEM did not converge for mass flow rate
   **   ~~~   ** Check values should be zero. Most Recent values listed first.
   **   ~~~   ** Demand-to-Supply interface mass flow rate check value iteration history trace: 5.550620E-002,5.550620E-002,5.550620E-002,5.550620E-002,5.550620E-002,5.550620E-002,5.550620E-002,5.550620E-002,5.550620E-002,5.550620E-002,
   **   ~~~   ** Supply-to-demand interface deck 1 mass flow rate check value iteration history trace: 5.550620E-002,5.550620E-002,5.550620E-002,5.550620E-002,5.550620E-002,5.550620E-002,5.550620E-002,5.550620E-002,5.550620E-002,5.550620E-002,
   **   ~~~   ** Air System Named = CENTRAL SYSTEM did not converge for energy
   **   ~~~   ** Check values should be zero. Most Recent values listed first.
   **   ~~~   ** Demand-to-Supply interface energy check value iteration history trace: 1095.457709,1095.457709,1095.457709,1095.457709,1095.457709,1095.457709,1095.457709,1095.457709,1095.457709,1095.457709,
   **   ~~~   ** Supply-to-demand interface deck 1 energy check value iteration history trace: 2050.232604,2050.232603,2050.232603,2050.232603,2050.232603,2050.232603,2050.232603,2050.232603,2050.232603,2050.232603,
   ************* Simulation Error Summary *************
   ** Warning ** The following Report Variables were requested but not generated -- check.rdd file
   **   ~~~   ** Either the IDF did not contain these elements, the variable name is misspelled,
   **   ~~~   ** or the requested variable is an advanced output which requires Output : Diagnostics, DisplayAdvancedReportVariables;
   ************* Key=*, VarName=BASEBOARD TOTAL HEATING ENERGY, Frequency=
   ************* Key=*, VarName=WATER HEATER NATURALGAS ENERGY, Frequency=
   ************* Key=*, VarName=COOLING COIL TOTAL HEATING ENERGY, Frequency=
   ************* There are 34 unused schedules in input.
   ************* There are 388 unused week schedules in input.
   ************* There are 396 unused day schedules in input.
   ************* Use Output:Diagnostics,DisplayUnusedSchedules; to see them.
   *************
   ************* ===== Recurring Error Summary =====
   ************* The following recurring error messages occurred.
   *************
   *************  ** Warning ** "TOTAL HOT WATER LOAD" - Target water temperature should be less than or equal to the hot water temperature error continues...
   *************  **   ~~~   **   This error occurred 140885 total times;
   *************  **   ~~~   **   during Warmup 0 times;
   *************  **   ~~~   **   during Sizing 0 times.
   *************  **   ~~~   **   Max=9.095248  Min=1.592877E-004
   *************
   *************  ** Warning ** Temperature out of range [-100. to 200.] (PsyPsatFnTemp)
   *************  **   ~~~   **   This error occurred 1 total times;
   *************  **   ~~~   **   during Warmup 0 times;
   *************  **   ~~~   **   during Sizing 0 times.
   *************  **   ~~~   **   Max=-232.287086 C  Min=-232.287086 C
   *************
   *************  ** Warning ** SimHVAC: Exceeding Maximum iterations for all HVAC loops, during ANNUAL continues
   *************  **   ~~~   **   This error occurred 3 total times;
   *************  **   ~~~   **   during Warmup 0 times;
   *************  **   ~~~   **   during Sizing 0 times.
   *************
   *************
   ************* ===== Final Error Summary =====
   ************* The following error categories occurred.  Consider correcting or noting.
   ************* Nominally Unused Constructions
   ************* ..The nominally unused constructions warning is provided to alert you to potential conditions that can cause
   ************* ..extra time during simulation. Each construction is calculated by the algorithm indicated in the HeatBalanceAlgorithm
   ************* ..object. You may remove the constructions indicated (when you use the DisplayExtraWarnings option).
   *************
   ************* EnergyPlus Warmup Error Summary. During Warmup: 1 Warning; 0 Severe Errors.
   ************* EnergyPlus Sizing Error Summary. During Sizing: 4 Warning; 0 Severe Errors.
   ************* EnergyPlus Completed Successfully-- 140921 Warning; 0 Severe Errors; Elapsed Time=00hr 06min 50.59sec
