Program Version,EnergyPlus, Version 22.2.0-c249759bad, YMD=2023.09.01 19:26,
   ************* Beginning Zone Sizing Calculations
   ** Warning ** ProcessScheduleInput: Schedule:Constant="ALWAYS ON DISCRETE", Schedule Type Limits Name="ONOFF" not found -- will not be validated
   ** Warning ** Foundation:Kiva="KIVA FOUNDATION", no Interior Horizontal Insulation Material Name defined
   **   ~~~   ** Interior Horizontal Insulation Depth will not be used.
   ** Warning ** CheckUsedConstructions: There are 15 nominally unused constructions in input.
   **   ~~~   ** Each Unused construction is shown.
   ************* Construction=INTERIOR FLOOR
   ************* Construction=INTERIOR WINDOW
   ************* Construction=EXTERIOR DOOR
   ************* Construction=INTERIOR DOOR
   ************* Construction=GABLE CONSTRUCTION
   ************* Construction=CRAWL_FLOOR
   ************* Construction=INSULATED PIPE
   ************* Construction=PLAIN PIPE
   ************* Construction=TDD PIPE
   ************* Construction=TDD DOME
   ************* Construction=TDD DIFFUSER
   ************* Construction=CRAWL WALL
   ************* Construction=CEILING-FLOOR-LAYER
   ************* Construction=SLAB CONSTRUCTION W FULL R10 INSULATION
   ************* Construction=SLAB CONSTRUCTION W FULL R5 INSULATION
   ** Warning ** GetDXCoils: Coil:Heating:DX:SingleSpeed="DX_HEATING_COIL" curve values
   **   ~~~   ** ... Defrost Energy Input Ratio Function of Temperature Curve Name = DEFROSTEIR output is not equal to 1.0 (+ or - 10%) at rated conditions.
   **   ~~~   ** ... Curve output at rated conditions = 0.152
   ************* Beginning System Sizing Calculations
   ************* Beginning Plant Sizing Calculations
   ** Warning ** SizeDXCoil Coil:Cooling:DX:SingleSpeed DX_COOLING_COIL
   **   ~~~   ** ...Gross Rated Total Cooling Capacity [W] will be limited by the maximum rated volume flow per rated total capacity ratio.
   **   ~~~   ** ...DX coil volume flow rate ( m3/s ) = 0.521190
   **   ~~~   ** ...Requested capacity ( W ) = 5770.213
   **   ~~~   ** ...Requested flow/capacity ratio ( m3/s/W ) = 9.032E-005
   **   ~~~   ** ...Maximum flow/capacity ratio ( m3/s/W ) = 6.041E-005
   **   ~~~   ** ...Adjusted capacity ( W ) = 8627.547
   ** Warning ** Coil:WaterHeating:AirToWaterHeatPump:Wrapped "HEAT PUMP WATER HEATER EVAPORATOR": Rated air volume flow rate per watt of rated total water heating capacity is out of range
   **   ~~~   ** Min Rated Vol Flow Per Watt=[4.027E-005], Rated Vol Flow Per Watt=[1.510E-004], Max Rated Vol Flow Per Watt=[8.056E-005]. See Input-Output Reference Manual for valid range.
   ************* SizeFan: : Potential issue with equipment sizing for Fan:OnOff HEAT PUMP WATER HEATER FAN
   **   ~~~   ** User-Specified Maximum Flow Rate [m3/s] = 0.22653
   **   ~~~   ** differs from Design Size Maximum Flow Rate [m3/s] = 7.55250E-002
   **   ~~~   ** This may, or may not, indicate mismatched component sizes.
   **   ~~~   ** Verify that the value entered is intended and is consistent with other components.
   ** Warning ** Water heater = WATER HEATER TANK:  Recovery Efficiency and Energy Factor could not be calculated during the test for standard ratings
   **   ~~~   ** Setpoint was never recovered and/or heater never turned on
   ** Warning ** Check input. Pump nominal power or motor efficiency is set to 0, for pump=MAINS PRESSURE
   ** Warning ** Output:Meter: invalid Key Name="ELECTRIC_RANGE:INTERIOREQUIPMENT:ELECTRICITY" - not found.
   ** Warning ** Output:Meter: invalid Key Name="ELECTRIC_DRYER:INTERIOREQUIPMENT:ELECTRICITY" - not found.
   ** Warning ** Output:Meter: invalid Key Name="HEATRECOVERY:ELECTRICITY" - not found.
   ** Warning ** Output:Meter: invalid Key Name="HEATING:NATURALGAS" - not found.
   ** Warning ** Output:Meter: invalid Key Name="WATERSYSTEMS:NATURALGAS" - not found.
   ** Warning ** Output:Meter: invalid Key Name="PROPANE:FACILITY" - not found.
   ** Warning ** Output:Meter: invalid Key Name="HEATING:PROPANE" - not found.
   ************* Testing Individual Branch Integrity
   ************* All Branches passed integrity testing
   ************* Testing Individual Supply Air Path Integrity
   ************* All Supply Air Paths passed integrity testing
   ************* Testing Individual Return Air Path Integrity
   ************* All Return Air Paths passed integrity testing
   ************* No node connection errors were found.
   ************* Beginning Simulation
   ** Warning ** AirflowNetwork::Solver::validate_distribution: Heat pump water heater is simulated along with an AirflowNetwork but is not included in the AirflowNetwork.
   ** Warning ** CalcEquipmentFlowRates: "TOTAL HOT WATER LOAD" - Target water temperature is greater than the hot water temperature by (1.07 C)
   **   ~~~   **  Environment=EXTREME_WINTER, at Simulation time=12/22 06:00 - 06:15
   **   ~~~   ** ...target water temperature     = 53.33 C
   **   ~~~   ** ...hot water temperature        = 52.26 C
   **   ~~~   ** ...Target water temperature should be less than or equal to the hot water temperature. Verify temperature setpoints and schedules.
   ** Warning ** SimHVAC: Maximum iterations (20) exceeded for all HVAC loops, at ANNUAL, 01/13 16:49 - 16:52
   **   ~~~   ** The solution for one or more of the Air Loop HVAC systems did not appear to converge
   **   ~~~   ** Air System Named = CENTRAL SYSTEM did not converge for mass flow rate
   **   ~~~   ** Check values should be zero. Most Recent values listed first.
   **   ~~~   ** Demand-to-Supply interface mass flow rate check value iteration history trace: 6.245644E-002,6.245644E-002,6.245644E-002,6.245644E-002,6.245644E-002,6.245644E-002,6.245644E-002,6.245644E-002,6.245644E-002,6.245644E-002,
   **   ~~~   ** Supply-to-demand interface deck 1 mass flow rate check value iteration history trace: 6.245644E-002,6.245644E-002,6.245644E-002,6.245644E-002,6.245644E-002,6.245644E-002,6.245644E-002,6.245644E-002,6.245644E-002,6.245644E-002,
   **   ~~~   ** Air System Named = CENTRAL SYSTEM did not converge for energy
   **   ~~~   ** Check values should be zero. Most Recent values listed first.
   **   ~~~   ** Demand-to-Supply interface energy check value iteration history trace: 1237.321906,1237.321906,1237.321906,1237.321906,1237.321906,1237.321906,1237.321906,1237.321906,1237.321906,1237.321906,
   **   ~~~   ** Supply-to-demand interface deck 1 energy check value iteration history trace: 2024.015333,2024.015333,2024.015333,2024.015333,2024.015333,2024.015333,2024.015332,2024.015332,2024.015332,2024.015332,
   ** Warning ** SimHVAC: Maximum iterations (20) exceeded for all HVAC loops, at ANNUAL, 01/21 17:41 - 17:43
   **   ~~~   ** The solution for one or more of the Air Loop HVAC systems did not appear to converge
   **   ~~~   ** Air System Named = CENTRAL SYSTEM did not converge for mass flow rate
   **   ~~~   ** Check values should be zero. Most Recent values listed first.
   **   ~~~   ** Demand-to-Supply interface mass flow rate check value iteration history trace: 6.856180E-002,6.856180E-002,6.856180E-002,6.856180E-002,6.856180E-002,6.856180E-002,6.856180E-002,6.856180E-002,6.856180E-002,6.856180E-002,
   **   ~~~   ** Supply-to-demand interface deck 1 mass flow rate check value iteration history trace: 6.856180E-002,6.856180E-002,6.856180E-002,6.856180E-002,6.856180E-002,6.856180E-002,6.856180E-002,6.856180E-002,6.856180E-002,6.856180E-002,
   **   ~~~   ** Air System Named = CENTRAL SYSTEM did not converge for energy
   **   ~~~   ** Check values should be zero. Most Recent values listed first.
   **   ~~~   ** Demand-to-Supply interface energy check value iteration history trace: 1357.264008,1357.264008,1357.264008,1357.264008,1357.264008,1357.264008,1357.264008,1357.264008,1357.264007,1357.264007,
   **   ~~~   ** Supply-to-demand interface deck 1 energy check value iteration history trace: 2069.475724,2069.475724,2069.475724,2069.475724,2069.475724,2069.475724,2069.475723,2069.475723,2069.475723,2069.475723,
   ** Warning ** SimHVAC: Maximum iterations (20) exceeded for all HVAC loops, at ANNUAL, 02/06 13:39 - 13:42
   **   ~~~   ** The solution for one or more of the Air Loop HVAC systems did not appear to converge
   **   ~~~   ** Air System Named = CENTRAL SYSTEM did not converge for mass flow rate
   **   ~~~   ** Check values should be zero. Most Recent values listed first.
   **   ~~~   ** Demand-to-Supply interface mass flow rate check value iteration history trace: 5.688538E-002,5.688538E-002,5.688538E-002,5.688538E-002,5.688538E-002,5.688538E-002,5.688538E-002,5.688538E-002,5.688538E-002,5.688538E-002,
   **   ~~~   ** Supply-to-demand interface deck 1 mass flow rate check value iteration history trace: 5.688538E-002,5.688538E-002,5.688538E-002,5.688538E-002,5.688538E-002,5.688538E-002,5.688538E-002,5.688538E-002,5.688538E-002,5.688538E-002,
   **   ~~~   ** Air System Named = CENTRAL SYSTEM did not converge for energy
   **   ~~~   ** Check values should be zero. Most Recent values listed first.
   **   ~~~   ** Demand-to-Supply interface energy check value iteration history trace: 1125.744281,1125.744281,1125.744281,1125.744281,1125.744281,1125.744281,1125.744281,1125.744281,1125.744281,1125.744281,
   **   ~~~   ** Supply-to-demand interface deck 1 energy check value iteration history trace: 1936.645323,1936.645323,1936.645323,1936.645323,1936.645323,1936.645323,1936.645323,1936.645323,1936.645323,1936.645323,
   ** Warning ** SimHVAC: Maximum iterations (20) exceeded for all HVAC loops, at ANNUAL, 02/10 15:45 - 15:52
   **   ~~~   ** The solution for one or more of the Air Loop HVAC systems did not appear to converge
   **   ~~~   ** Air System Named = CENTRAL SYSTEM did not converge for mass flow rate
   **   ~~~   ** Check values should be zero. Most Recent values listed first.
   **   ~~~   ** Demand-to-Supply interface mass flow rate check value iteration history trace: 6.040702E-002,6.040702E-002,6.040702E-002,6.040702E-002,6.040702E-002,6.040702E-002,6.040702E-002,6.040702E-002,6.040702E-002,6.040702E-002,
   **   ~~~   ** Supply-to-demand interface deck 1 mass flow rate check value iteration history trace: 6.040702E-002,6.040702E-002,6.040702E-002,6.040702E-002,6.040702E-002,6.040702E-002,6.040702E-002,6.040702E-002,6.040702E-002,6.040702E-002,
   **   ~~~   ** Air System Named = CENTRAL SYSTEM did not converge for energy
   **   ~~~   ** Check values should be zero. Most Recent values listed first.
   **   ~~~   ** Demand-to-Supply interface energy check value iteration history trace: 1190.086251,1190.086251,1190.086251,1190.086251,1190.086251,1190.086251,1190.086250,1190.086250,1190.086250,1190.086250,
   **   ~~~   ** Supply-to-demand interface deck 1 energy check value iteration history trace: 2019.447021,2019.447021,2019.447021,2019.447021,2019.447021,2019.447021,2019.447021,2019.447021,2019.447021,2019.447021,
   ** Warning ** SimHVAC: Maximum iterations (20) exceeded for all HVAC loops, at ANNUAL, 02/18 13:45 - 13:52
   **   ~~~   ** The solution for one or more of the Air Loop HVAC systems did not appear to converge
   **   ~~~   ** Air System Named = CENTRAL SYSTEM did not converge for mass flow rate
   **   ~~~   ** Check values should be zero. Most Recent values listed first.
   **   ~~~   ** Demand-to-Supply interface mass flow rate check value iteration history trace: 4.543710E-002,4.543710E-002,4.543710E-002,4.543710E-002,4.543710E-002,4.543710E-002,4.543710E-002,4.543710E-002,4.543710E-002,4.543710E-002,
   **   ~~~   ** Supply-to-demand interface deck 1 mass flow rate check value iteration history trace: 4.543710E-002,4.543710E-002,4.543710E-002,4.543710E-002,4.543710E-002,4.543710E-002,4.543710E-002,4.543710E-002,4.543710E-002,4.543710E-002,
   **   ~~~   ** Air System Named = CENTRAL SYSTEM did not converge for energy
   **   ~~~   ** Check values should be zero. Most Recent values listed first.
   **   ~~~   ** Demand-to-Supply interface energy check value iteration history trace: 900.442019,900.442019,900.442019,900.442019,900.442019,900.442019,900.442019,900.442019,900.442018,900.442018,
   **   ~~~   ** Supply-to-demand interface deck 1 energy check value iteration history trace: 1539.807388,1539.807388,1539.807388,1539.807388,1539.807388,1539.807388,1539.807388,1539.807387,1539.807387,1539.807387,
   ** Warning ** CalcDoe2DXCoil: Coil:Cooling:DX:SingleSpeed "DX_COOLING_COIL" - Full load outlet air dry-bulb temperature < 2C. This indicates the possibility of coil frost/freeze. Outlet temperature = 2.00 C.
   **   ~~~   **  ...Occurrence info = ANNUAL, 03/07 16:19 - 16:22
   **   ~~~   ** ... Possible reasons for low outlet air dry-bulb temperatures are: This DX coil
   **   ~~~   **    1) may have a low inlet air dry-bulb temperature. Inlet air temperature = 22.954 C.
   **   ~~~   **    2) may have a low air flow rate per watt of cooling capacity. Check inputs.
   **   ~~~   **    3) is used as part of a HX assisted cooling coil which uses a high sensible effectiveness. Check inputs.
   ** Warning ** SimHVAC: Maximum iterations (20) exceeded for all HVAC loops, at ANNUAL, 03/22 21:00 - 21:15
   **   ~~~   ** The solution for one or more of the Air Loop HVAC systems did not appear to converge
   **   ~~~   ** Air System Named = CENTRAL SYSTEM did not converge for mass flow rate
   **   ~~~   ** Check values should be zero. Most Recent values listed first.
   **   ~~~   ** Demand-to-Supply interface mass flow rate check value iteration history trace: 4.907108E-002,4.907108E-002,4.907108E-002,4.907108E-002,4.907108E-002,4.907108E-002,4.907108E-002,4.907108E-002,4.907108E-002,4.907108E-002,
   **   ~~~   ** Supply-to-demand interface deck 1 mass flow rate check value iteration history trace: 4.907108E-002,4.907108E-002,4.907108E-002,4.907108E-002,4.907108E-002,4.907108E-002,4.907108E-002,4.907108E-002,4.907108E-002,4.907108E-002,
   **   ~~~   ** Air System Named = CENTRAL SYSTEM did not converge for energy
   **   ~~~   ** Check values should be zero. Most Recent values listed first.
   **   ~~~   ** Demand-to-Supply interface energy check value iteration history trace: 971.041347,971.041347,971.041347,971.041347,971.041347,971.041347,971.041347,971.041347,971.041347,971.041347,
   **   ~~~   ** Supply-to-demand interface deck 1 energy check value iteration history trace: 1830.230420,1830.230420,1830.230420,1830.230420,1830.230420,1830.230419,1830.230419,1830.230419,1830.230419,1830.230419,
   ** Warning ** Temperature out of range [-100. to 200.] (PsyPsatFnTemp)
   **   ~~~   **  Routine=PsyTwbFnTdbWPb, Environment=ANNUAL, at Simulation time=03/27 16:38 - 16:40
   **   ~~~   **  Input Temperature=-251.13
   ** Warning ** SimHVAC: Maximum iterations (20) exceeded for all HVAC loops, at ANNUAL, 04/02 18:30 - 18:45
   **   ~~~   ** The solution for one or more of the Air Loop HVAC systems did not appear to converge
   **   ~~~   ** Air System Named = CENTRAL SYSTEM did not converge for mass flow rate
   **   ~~~   ** Check values should be zero. Most Recent values listed first.
   **   ~~~   ** Demand-to-Supply interface mass flow rate check value iteration history trace: 7.308779E-002,7.308779E-002,7.308779E-002,7.308779E-002,7.308779E-002,7.308779E-002,7.308779E-002,7.308779E-002,7.308779E-002,7.308779E-002,
   **   ~~~   ** Supply-to-demand interface deck 1 mass flow rate check value iteration history trace: 7.308779E-002,7.308779E-002,7.308779E-002,7.308779E-002,7.308779E-002,7.308779E-002,7.308779E-002,7.308779E-002,7.308779E-002,7.308779E-002,
   **   ~~~   ** Air System Named = CENTRAL SYSTEM did not converge for energy
   **   ~~~   ** Check values should be zero. Most Recent values listed first.
   **   ~~~   ** Demand-to-Supply interface energy check value iteration history trace: 1439.085583,1439.085583,1439.085583,1439.085583,1439.085583,1439.085582,1439.085582,1439.085582,1439.085582,1439.085582,
   **   ~~~   ** Supply-to-demand interface deck 1 energy check value iteration history trace: 2359.703980,2359.703980,2359.703980,2359.703980,2359.703980,2359.703979,2359.703979,2359.703979,2359.703979,2359.703979,
   ** Warning ** SimHVAC: Maximum iterations (20) exceeded for all HVAC loops, at ANNUAL, 04/10 08:32 - 08:34
   **   ~~~   ** The solution for one or more of the Air Loop HVAC systems did not appear to converge
   **   ~~~   ** Air System Named = CENTRAL SYSTEM did not converge for mass flow rate
   **   ~~~   ** Check values should be zero. Most Recent values listed first.
   **   ~~~   ** Demand-to-Supply interface mass flow rate check value iteration history trace: 4.375840E-002,4.375840E-002,4.375840E-002,4.375840E-002,4.375840E-002,4.375840E-002,4.375840E-002,4.375840E-002,4.375840E-002,4.375840E-002,
   **   ~~~   ** Supply-to-demand interface deck 1 mass flow rate check value iteration history trace: 4.375840E-002,4.375840E-002,4.375840E-002,4.375840E-002,4.375840E-002,4.375840E-002,4.375840E-002,4.375840E-002,4.375840E-002,4.375840E-002,
   **   ~~~   ** Air System Named = CENTRAL SYSTEM did not converge for energy
   **   ~~~   ** Check values should be zero. Most Recent values listed first.
   **   ~~~   ** Demand-to-Supply interface energy check value iteration history trace: 864.096819,864.096819,864.096819,864.096819,864.096819,864.096819,864.096819,864.096819,864.096819,864.096819,
   **   ~~~   ** Supply-to-demand interface deck 1 energy check value iteration history trace: 1731.184368,1731.184368,1731.184368,1731.184368,1731.184368,1731.184367,1731.184367,1731.184367,1731.184367,1731.184367,
   ** Warning ** SimHVAC: Maximum iterations (20) exceeded for all HVAC loops, at ANNUAL, 04/18 08:03 - 08:05
   **   ~~~   ** The solution for one or more of the Air Loop HVAC systems did not appear to converge
   **   ~~~   ** Air System Named = CENTRAL SYSTEM did not converge for mass flow rate
   **   ~~~   ** Check values should be zero. Most Recent values listed first.
   **   ~~~   ** Demand-to-Supply interface mass flow rate check value iteration history trace: 4.954888E-002,4.954888E-002,4.954888E-002,4.954888E-002,4.954888E-002,4.954888E-002,4.954888E-002,4.954888E-002,4.954888E-002,4.954888E-002,
   **   ~~~   ** Supply-to-demand interface deck 1 mass flow rate check value iteration history trace: 4.954888E-002,4.954888E-002,4.954888E-002,4.954888E-002,4.954888E-002,4.954888E-002,4.954888E-002,4.954888E-002,4.954888E-002,4.954888E-002,
   **   ~~~   ** Air System Named = CENTRAL SYSTEM did not converge for energy
   **   ~~~   ** Check values should be zero. Most Recent values listed first.
   **   ~~~   ** Demand-to-Supply interface energy check value iteration history trace: 981.941779,981.941779,981.941779,981.941779,981.941778,981.941778,981.941778,981.941778,981.941778,981.941778,
   **   ~~~   ** Supply-to-demand interface deck 1 energy check value iteration history trace: 1979.535966,1979.535966,1979.535966,1979.535966,1979.535966,1979.535966,1979.535966,1979.535966,1979.535966,1979.535965,
   ** Warning ** SimHVAC: Maximum iterations (20) exceeded for all HVAC loops, at ANNUAL, 04/24 08:30 - 08:45
   **   ~~~   ** The solution for one or more of the Air Loop HVAC systems did not appear to converge
   **   ~~~   ** Air System Named = CENTRAL SYSTEM did not converge for mass flow rate
   **   ~~~   ** Check values should be zero. Most Recent values listed first.
   **   ~~~   ** Demand-to-Supply interface mass flow rate check value iteration history trace: 5.565546E-002,5.565546E-002,5.565546E-002,5.565546E-002,5.565546E-002,5.565546E-002,5.565546E-002,5.565546E-002,5.565546E-002,5.565546E-002,
   **   ~~~   ** Supply-to-demand interface deck 1 mass flow rate check value iteration history trace: 5.565546E-002,5.565546E-002,5.565546E-002,5.565546E-002,5.565546E-002,5.565546E-002,5.565546E-002,5.565546E-002,5.565546E-002,5.565546E-002,
   **   ~~~   ** Air System Named = CENTRAL SYSTEM did not converge for energy
   **   ~~~   ** Check values should be zero. Most Recent values listed first.
   **   ~~~   ** Demand-to-Supply interface energy check value iteration history trace: 1102.938582,1102.938582,1102.938582,1102.938582,1102.938582,1102.938582,1102.938582,1102.938582,1102.938582,1102.938582,
   **   ~~~   ** Supply-to-demand interface deck 1 energy check value iteration history trace: 1912.933604,1912.933604,1912.933604,1912.933604,1912.933604,1912.933603,1912.933603,1912.933603,1912.933603,1912.933603,
   ** Warning ** SimHVAC: Maximum iterations (20) exceeded for all HVAC loops, at ANNUAL, 04/29 19:15 - 19:30
   **   ~~~   ** The solution for one or more of the Air Loop HVAC systems did not appear to converge
   **   ~~~   ** Air System Named = CENTRAL SYSTEM did not converge for mass flow rate
   **   ~~~   ** Check values should be zero. Most Recent values listed first.
   **   ~~~   ** Demand-to-Supply interface mass flow rate check value iteration history trace: 7.036689E-002,7.036689E-002,7.036689E-002,7.036689E-002,7.036689E-002,7.036689E-002,7.036689E-002,7.036689E-002,7.036689E-002,7.036689E-002,
   **   ~~~   ** Supply-to-demand interface deck 1 mass flow rate check value iteration history trace: 7.036689E-002,7.036689E-002,7.036689E-002,7.036689E-002,7.036689E-002,7.036689E-002,7.036689E-002,7.036689E-002,7.036689E-002,7.036689E-002,
   **   ~~~   ** Air System Named = CENTRAL SYSTEM did not converge for energy
   **   ~~~   ** Check values should be zero. Most Recent values listed first.
   **   ~~~   ** Demand-to-Supply interface energy check value iteration history trace: 1393.532678,1393.532678,1393.532678,1393.532678,1393.532678,1393.532677,1393.532677,1393.532677,1393.532677,1393.532677,
   **   ~~~   ** Supply-to-demand interface deck 1 energy check value iteration history trace: 2372.842393,2372.842392,2372.842392,2372.842392,2372.842392,2372.842392,2372.842392,2372.842392,2372.842392,2372.842392,
   ** Warning ** SimHVAC: Maximum iterations (20) exceeded for all HVAC loops, at ANNUAL, 05/07 23:45 - 24:00
   **   ~~~   ** The solution for one or more of the Air Loop HVAC systems did not appear to converge
   **   ~~~   ** Air System Named = CENTRAL SYSTEM did not converge for mass flow rate
   **   ~~~   ** Check values should be zero. Most Recent values listed first.
   **   ~~~   ** Demand-to-Supply interface mass flow rate check value iteration history trace: 4.667489E-002,4.667489E-002,4.667489E-002,4.667489E-002,4.667489E-002,4.667489E-002,4.667489E-002,4.667489E-002,4.667489E-002,4.667489E-002,
   **   ~~~   ** Supply-to-demand interface deck 1 mass flow rate check value iteration history trace: 4.667489E-002,4.667489E-002,4.667489E-002,4.667489E-002,4.667489E-002,4.667489E-002,4.667489E-002,4.667489E-002,4.667489E-002,4.667489E-002,
   **   ~~~   ** Air System Named = CENTRAL SYSTEM did not converge for energy
   **   ~~~   ** Check values should be zero. Most Recent values listed first.
   **   ~~~   ** Demand-to-Supply interface energy check value iteration history trace: 860.320256,860.320256,860.320256,860.320256,860.320256,860.320256,860.320256,860.320256,860.320256,860.320256,
   **   ~~~   ** Supply-to-demand interface deck 1 energy check value iteration history trace: 1539.234621,1539.234621,1539.234621,1539.234621,1539.234621,1539.234621,1539.234621,1539.234620,1539.234620,1539.234620,
   ** Warning ** SimHVAC: Maximum iterations (20) exceeded for all HVAC loops, at ANNUAL, 05/16 07:48 - 07:49
   **   ~~~   ** The solution for one or more of the Air Loop HVAC systems did not appear to converge
   **   ~~~   ** Air System Named = CENTRAL SYSTEM did not converge for mass flow rate
   **   ~~~   ** Check values should be zero. Most Recent values listed first.
   **   ~~~   ** Demand-to-Supply interface mass flow rate check value iteration history trace: 4.527967E-002,4.527967E-002,4.527967E-002,4.527967E-002,4.527967E-002,4.527967E-002,4.527967E-002,4.527967E-002,4.527967E-002,4.527967E-002,
   **   ~~~   ** Supply-to-demand interface deck 1 mass flow rate check value iteration history trace: 4.527967E-002,4.527967E-002,4.527967E-002,4.527967E-002,4.527967E-002,4.527967E-002,4.527967E-002,4.527967E-002,4.527967E-002,4.527967E-002,
   **   ~~~   ** Air System Named = CENTRAL SYSTEM did not converge for energy
   **   ~~~   ** Check values should be zero. Most Recent values listed first.
   **   ~~~   ** Demand-to-Supply interface energy check value iteration history trace: 894.524595,894.524595,894.524595,894.524595,894.524595,894.524595,894.524595,894.524595,894.524595,894.524595,
   **   ~~~   ** Supply-to-demand interface deck 1 energy check value iteration history trace: 1787.158266,1787.158266,1787.158266,1787.158266,1787.158266,1787.158266,1787.158266,1787.158266,1787.158266,1787.158266,
   ** Warning ** SimHVAC: Maximum iterations (20) exceeded for all HVAC loops, at ANNUAL, 05/16 08:03 - 08:05
   **   ~~~   ** The solution for one or more of the Air Loop HVAC systems did not appear to converge
   **   ~~~   ** Air System Named = CENTRAL SYSTEM did not converge for mass flow rate
   **   ~~~   ** Check values should be zero. Most Recent values listed first.
   **   ~~~   ** Demand-to-Supply interface mass flow rate check value iteration history trace: 4.738629E-002,4.738629E-002,4.738629E-002,4.738629E-002,4.738629E-002,4.738629E-002,4.738629E-002,4.738629E-002,4.738629E-002,4.738629E-002,
   **   ~~~   ** Supply-to-demand interface deck 1 mass flow rate check value iteration history trace: 4.738629E-002,4.738629E-002,4.738629E-002,4.738629E-002,4.738629E-002,4.738629E-002,4.738629E-002,4.738629E-002,4.738629E-002,4.738629E-002,
   **   ~~~   ** Air System Named = CENTRAL SYSTEM did not converge for energy
   **   ~~~   ** Check values should be zero. Most Recent values listed first.
   **   ~~~   ** Demand-to-Supply interface energy check value iteration history trace: 935.879784,935.879784,935.879784,935.879784,935.879784,935.879784,935.879784,935.879784,935.879784,935.879784,
   **   ~~~   ** Supply-to-demand interface deck 1 energy check value iteration history trace: 1891.113048,1891.113048,1891.113048,1891.113048,1891.113048,1891.113048,1891.113048,1891.113048,1891.113048,1891.113048,
   ************* Simulation Error Summary *************
   ** Warning ** The following Report Variables were requested but not generated -- check.rdd file
   **   ~~~   ** Either the IDF did not contain these elements, the variable name is misspelled,
   **   ~~~   ** or the requested variable is an advanced output which requires Output : Diagnostics, DisplayAdvancedReportVariables;
   ************* Key=*, VarName=BASEBOARD TOTAL HEATING ENERGY, Frequency=
   ************* Key=*, VarName=WATER HEATER NATURALGAS ENERGY, Frequency=
   ************* Key=*, VarName=COOLING COIL TOTAL HEATING ENERGY, Frequency=
   ************* There are 34 unused schedules in input.
   ************* There are 388 unused week schedules in input.
   ************* There are 396 unused day schedules in input.
   ************* Use Output:Diagnostics,DisplayUnusedSchedules; to see them.
   *************
   ************* ===== Recurring Error Summary =====
   ************* The following recurring error messages occurred.
   *************
   *************  ** Warning ** "TOTAL HOT WATER LOAD" - Target water temperature should be less than or equal to the hot water temperature error continues...
   *************  **   ~~~   **   This error occurred 166623 total times;
   *************  **   ~~~   **   during Warmup 0 times;
   *************  **   ~~~   **   during Sizing 0 times.
   *************  **   ~~~   **   Max=10.440527  Min=6.638083E-004
   *************
   *************  ** Warning ** CalcDoe2DXCoil: Coil:Cooling:DX:SingleSpeed="DX_COOLING_COIL" - Full load outlet temperature indicates a possibility of frost/freeze error continues. Outlet air temperature statistics follow:
   *************  **   ~~~   **   This error occurred 1 total times;
   *************  **   ~~~   **   during Warmup 0 times;
   *************  **   ~~~   **   during Sizing 0 times.
   *************  **   ~~~   **   Max=1.998215  Min=1.998215
   *************
   *************  ** Warning ** Temperature out of range [-100. to 200.] (PsyPsatFnTemp)
   *************  **   ~~~   **   This error occurred 81 total times;
   *************  **   ~~~   **   during Warmup 0 times;
   *************  **   ~~~   **   during Sizing 0 times.
   *************  **   ~~~   **   Max=-100.103798 C  Min=-2086.890015 C
   *************
   *************  ** Warning ** SimHVAC: Exceeding Maximum iterations for all HVAC loops, during ANNUAL continues
   *************  **   ~~~   **   This error occurred 18 total times;
   *************  **   ~~~   **   during Warmup 0 times;
   *************  **   ~~~   **   during Sizing 0 times.
   *************
   *************
   ************* ===== Final Error Summary =====
   ************* The following error categories occurred.  Consider correcting or noting.
   ************* Nominally Unused Constructions
   ************* ..The nominally unused constructions warning is provided to alert you to potential conditions that can cause
   ************* ..extra time during simulation. Each construction is calculated by the algorithm indicated in the HeatBalanceAlgorithm
   ************* ..object. You may remove the constructions indicated (when you use the DisplayExtraWarnings option).
   *************
   ************* EnergyPlus Warmup Error Summary. During Warmup: 1 Warning; 0 Severe Errors.
   ************* EnergyPlus Sizing Error Summary. During Sizing: 4 Warning; 0 Severe Errors.
   ************* EnergyPlus Completed Successfully-- 166755 Warning; 0 Severe Errors; Elapsed Time=00hr 01min 49.49sec
