Program Version,EnergyPlus, Version 22.2.0-c249759bad, YMD=2023.09.01 14:36,
   ************* Beginning Zone Sizing Calculations
   ** Warning ** ProcessScheduleInput: Schedule:Constant="ALWAYS ON DISCRETE", Schedule Type Limits Name="ONOFF" not found -- will not be validated
   ** Warning ** Foundation:Kiva="KIVA FOUNDATION", no Interior Horizontal Insulation Material Name defined
   **   ~~~   ** Interior Horizontal Insulation Depth will not be used.
   ** Warning ** CheckUsedConstructions: There are 15 nominally unused constructions in input.
   **   ~~~   ** Each Unused construction is shown.
   ************* Construction=INTERIOR FLOOR
   ************* Construction=INTERIOR WINDOW
   ************* Construction=EXTERIOR DOOR
   ************* Construction=INTERIOR DOOR
   ************* Construction=GABLE CONSTRUCTION
   ************* Construction=CRAWL_FLOOR
   ************* Construction=INSULATED PIPE
   ************* Construction=PLAIN PIPE
   ************* Construction=TDD PIPE
   ************* Construction=TDD DOME
   ************* Construction=TDD DIFFUSER
   ************* Construction=CRAWL WALL
   ************* Construction=CEILING-FLOOR-LAYER
   ************* Construction=SLAB CONSTRUCTION W FULL R10 INSULATION
   ************* Construction=SLAB CONSTRUCTION W FULL R5 INSULATION
   ** Warning ** GetDXCoils: Coil:Heating:DX:SingleSpeed="DX_HEATING_COIL" curve values
   **   ~~~   ** ... Defrost Energy Input Ratio Function of Temperature Curve Name = DEFROSTEIR output is not equal to 1.0 (+ or - 10%) at rated conditions.
   **   ~~~   ** ... Curve output at rated conditions = 0.152
   ************* Beginning System Sizing Calculations
   ************* Beginning Plant Sizing Calculations
   ** Warning ** SizeDXCoil Coil:Cooling:DX:SingleSpeed DX_COOLING_COIL
   **   ~~~   ** ...Gross Rated Total Cooling Capacity [W] will be limited by the maximum rated volume flow per rated total capacity ratio.
   **   ~~~   ** ...DX coil volume flow rate ( m3/s ) = 0.423968
   **   ~~~   ** ...Requested capacity ( W ) = 5127.332
   **   ~~~   ** ...Requested flow/capacity ratio ( m3/s/W ) = 8.268E-005
   **   ~~~   ** ...Maximum flow/capacity ratio ( m3/s/W ) = 6.041E-005
   **   ~~~   ** ...Adjusted capacity ( W ) = 7018.189
   ** Warning ** Coil:WaterHeating:AirToWaterHeatPump:Wrapped "HEAT PUMP WATER HEATER EVAPORATOR": Rated air volume flow rate per watt of rated total water heating capacity is out of range
   **   ~~~   ** Min Rated Vol Flow Per Watt=[4.027E-005], Rated Vol Flow Per Watt=[1.386E-004], Max Rated Vol Flow Per Watt=[8.056E-005]. See Input-Output Reference Manual for valid range.
   ** Warning ** Water heater = WATER HEATER TANK:  Recovery Efficiency and Energy Factor could not be calculated during the test for standard ratings
   **   ~~~   ** Setpoint was never recovered and/or heater never turned on
   ** Warning ** Check input. Pump nominal power or motor efficiency is set to 0, for pump=MAINS PRESSURE
   ** Warning ** Output:Meter: invalid Key Name="ELECTRIC_RANGE:INTERIOREQUIPMENT:ELECTRICITY" - not found.
   ** Warning ** Output:Meter: invalid Key Name="ELECTRIC_DRYER:INTERIOREQUIPMENT:ELECTRICITY" - not found.
   ** Warning ** Output:Meter: invalid Key Name="HEATRECOVERY:ELECTRICITY" - not found.
   ** Warning ** Output:Meter: invalid Key Name="HEATING:NATURALGAS" - not found.
   ** Warning ** Output:Meter: invalid Key Name="WATERSYSTEMS:NATURALGAS" - not found.
   ** Warning ** Output:Meter: invalid Key Name="PROPANE:FACILITY" - not found.
   ** Warning ** Output:Meter: invalid Key Name="HEATING:PROPANE" - not found.
   ************* Testing Individual Branch Integrity
   ************* All Branches passed integrity testing
   ************* Testing Individual Supply Air Path Integrity
   ************* All Supply Air Paths passed integrity testing
   ************* Testing Individual Return Air Path Integrity
   ************* All Return Air Paths passed integrity testing
   ************* No node connection errors were found.
   ************* Beginning Simulation
   ** Warning ** AirflowNetwork::Solver::validate_distribution: Heat pump water heater is simulated along with an AirflowNetwork but is not included in the AirflowNetwork.
   ** Warning ** CalcEquipmentFlowRates: "TOTAL HOT WATER LOAD" - Target water temperature is greater than the hot water temperature by (1.63 C)
   **   ~~~   **  Environment=EXTREME_WINTER, at Simulation time=01/06 06:00 - 06:15
   **   ~~~   ** ...target water temperature     = 53.33 C
   **   ~~~   ** ...hot water temperature        = 51.70 C
   **   ~~~   ** ...Target water temperature should be less than or equal to the hot water temperature. Verify temperature setpoints and schedules.
   ** Warning ** SimHVAC: Maximum iterations (20) exceeded for all HVAC loops, at EXTREME_WINTER, 01/12 12:15 - 12:20
   **   ~~~   ** The solution for one or more of the Air Loop HVAC systems did not appear to converge
   **   ~~~   ** Air System Named = CENTRAL SYSTEM did not converge for mass flow rate
   **   ~~~   ** Check values should be zero. Most Recent values listed first.
   **   ~~~   ** Demand-to-Supply interface mass flow rate check value iteration history trace: 6.244042E-002,6.244042E-002,6.244042E-002,6.244042E-002,6.244042E-002,6.244042E-002,6.244042E-002,6.244042E-002,6.244042E-002,6.244042E-002,
   **   ~~~   ** Supply-to-demand interface deck 1 mass flow rate check value iteration history trace: 6.244042E-002,6.244042E-002,6.244042E-002,6.244042E-002,6.244042E-002,6.244042E-002,6.244042E-002,6.244042E-002,6.244042E-002,6.244042E-002,
   **   ~~~   ** Air System Named = CENTRAL SYSTEM did not converge for energy
   **   ~~~   ** Check values should be zero. Most Recent values listed first.
   **   ~~~   ** Demand-to-Supply interface energy check value iteration history trace: 1237.358014,1237.358013,1237.358013,1237.358013,1237.358013,1237.358013,1237.358013,1237.358013,1237.358013,1237.358013,
   **   ~~~   ** Supply-to-demand interface deck 1 energy check value iteration history trace: 2095.494030,2095.494030,2095.494030,2095.494030,2095.494030,2095.494030,2095.494030,2095.494030,2095.494030,2095.494029,
   ** Warning ** SimHVAC: Maximum iterations (20) exceeded for all HVAC loops, at ANNUAL, 01/12 19:15 - 19:30
   **   ~~~   ** The solution for one or more of the Air Loop HVAC systems did not appear to converge
   **   ~~~   ** Air System Named = CENTRAL SYSTEM did not converge for mass flow rate
   **   ~~~   ** Check values should be zero. Most Recent values listed first.
   **   ~~~   ** Demand-to-Supply interface mass flow rate check value iteration history trace: 0.104478,0.104478,0.104478,0.104478,0.104478,0.104478,0.104478,0.104478,0.104478,0.104478,
   **   ~~~   ** Supply-to-demand interface deck 1 mass flow rate check value iteration history trace: 0.104478,0.104478,0.104478,0.104478,0.104478,0.104478,0.104478,0.104478,0.104478,0.104478,
   **   ~~~   ** Air System Named = CENTRAL SYSTEM did not converge for energy
   **   ~~~   ** Check values should be zero. Most Recent values listed first.
   **   ~~~   ** Demand-to-Supply interface energy check value iteration history trace: 2055.452556,2055.452556,2055.452556,2055.452556,2055.452555,2055.452555,2055.452555,2055.452555,2055.452555,2055.452555,
   **   ~~~   ** Supply-to-demand interface deck 1 energy check value iteration history trace: 3102.821251,3102.821250,3102.821250,3102.821250,3102.821250,3102.821250,3102.821249,3102.821249,3102.821249,3102.821249,
   ** Warning ** Temperature out of range [-100. to 200.] (PsyPsatFnTemp)
   **   ~~~   **  Routine=PsyTwbFnTdbWPb, Environment=ANNUAL, at Simulation time=01/17 15:54 - 15:57
   **   ~~~   **  Input Temperature=-148.15
   ** Warning ** SimHVAC: Maximum iterations (20) exceeded for all HVAC loops, at ANNUAL, 02/06 19:40 - 19:45
   **   ~~~   ** The solution for one or more of the Air Loop HVAC systems did not appear to converge
   **   ~~~   ** Air System Named = CENTRAL SYSTEM did not converge for mass flow rate
   **   ~~~   ** Check values should be zero. Most Recent values listed first.
   **   ~~~   ** Demand-to-Supply interface mass flow rate check value iteration history trace: 9.307241E-002,9.307241E-002,9.307241E-002,9.307241E-002,9.307241E-002,9.307241E-002,9.307241E-002,9.307241E-002,9.307241E-002,9.307241E-002,
   **   ~~~   ** Supply-to-demand interface deck 1 mass flow rate check value iteration history trace: 9.307241E-002,9.307241E-002,9.307241E-002,9.307241E-002,9.307241E-002,9.307241E-002,9.307241E-002,9.307241E-002,9.307241E-002,9.307241E-002,
   **   ~~~   ** Air System Named = CENTRAL SYSTEM did not converge for energy
   **   ~~~   ** Check values should be zero. Most Recent values listed first.
   **   ~~~   ** Demand-to-Supply interface energy check value iteration history trace: 1825.239010,1825.239010,1825.239010,1825.239010,1825.239010,1825.239010,1825.239010,1825.239010,1825.239010,1825.239010,
   **   ~~~   ** Supply-to-demand interface deck 1 energy check value iteration history trace: 2887.471091,2887.471090,2887.471090,2887.471090,2887.471090,2887.471090,2887.471090,2887.471089,2887.471089,2887.471089,
   ** Warning ** SimHVAC: Maximum iterations (20) exceeded for all HVAC loops, at ANNUAL, 02/11 11:35 - 11:38
   **   ~~~   ** The solution for one or more of the Air Loop HVAC systems did not appear to converge
   **   ~~~   ** Air System Named = CENTRAL SYSTEM did not converge for mass flow rate
   **   ~~~   ** Check values should be zero. Most Recent values listed first.
   **   ~~~   ** Demand-to-Supply interface mass flow rate check value iteration history trace: 4.670932E-002,4.670932E-002,4.670932E-002,4.670932E-002,4.670932E-002,4.670932E-002,4.670932E-002,4.670932E-002,4.670932E-002,4.670932E-002,
   **   ~~~   ** Supply-to-demand interface deck 1 mass flow rate check value iteration history trace: 4.670932E-002,4.670932E-002,4.670932E-002,4.670932E-002,4.670932E-002,4.670932E-002,4.670932E-002,4.670932E-002,4.670932E-002,4.670932E-002,
   **   ~~~   ** Air System Named = CENTRAL SYSTEM did not converge for energy
   **   ~~~   ** Check values should be zero. Most Recent values listed first.
   **   ~~~   ** Demand-to-Supply interface energy check value iteration history trace: 920.976921,920.976921,920.976921,920.976921,920.976921,920.976921,920.976921,920.976921,920.976921,920.976921,
   **   ~~~   ** Supply-to-demand interface deck 1 energy check value iteration history trace: 1791.864651,1791.864651,1791.864651,1791.864651,1791.864651,1791.864651,1791.864651,1791.864651,1791.864651,1791.864651,
   ** Warning ** SimHVAC: Maximum iterations (20) exceeded for all HVAC loops, at ANNUAL, 03/14 09:30 - 09:32
   **   ~~~   ** The solution for one or more of the Air Loop HVAC systems did not appear to converge
   **   ~~~   ** Air System Named = CENTRAL SYSTEM did not converge for mass flow rate
   **   ~~~   ** Check values should be zero. Most Recent values listed first.
   **   ~~~   ** Demand-to-Supply interface mass flow rate check value iteration history trace: 4.833380E-002,4.833380E-002,4.833380E-002,4.833380E-002,4.833380E-002,4.833380E-002,4.833380E-002,4.833380E-002,4.833380E-002,4.833380E-002,
   **   ~~~   ** Supply-to-demand interface deck 1 mass flow rate check value iteration history trace: 4.833380E-002,4.833380E-002,4.833380E-002,4.833380E-002,4.833380E-002,4.833380E-002,4.833380E-002,4.833380E-002,4.833380E-002,4.833380E-002,
   **   ~~~   ** Air System Named = CENTRAL SYSTEM did not converge for energy
   **   ~~~   ** Check values should be zero. Most Recent values listed first.
   **   ~~~   ** Demand-to-Supply interface energy check value iteration history trace: 956.294035,956.294035,956.294035,956.294035,956.294035,956.294035,956.294035,956.294034,956.294034,956.294034,
   **   ~~~   ** Supply-to-demand interface deck 1 energy check value iteration history trace: 1919.755160,1919.755160,1919.755160,1919.755160,1919.755160,1919.755160,1919.755160,1919.755160,1919.755160,1919.755160,
   ** Warning ** SimHVAC: Maximum iterations (20) exceeded for all HVAC loops, at ANNUAL, 04/12 19:45 - 20:00
   **   ~~~   ** The solution for one or more of the Air Loop HVAC systems did not appear to converge
   **   ~~~   ** Air System Named = CENTRAL SYSTEM did not converge for mass flow rate
   **   ~~~   ** Check values should be zero. Most Recent values listed first.
   **   ~~~   ** Demand-to-Supply interface mass flow rate check value iteration history trace: 8.487494E-002,8.487494E-002,8.487494E-002,8.487494E-002,8.487494E-002,8.487494E-002,8.487494E-002,8.487494E-002,8.487494E-002,8.487494E-002,
   **   ~~~   ** Supply-to-demand interface deck 1 mass flow rate check value iteration history trace: 8.487494E-002,8.487494E-002,8.487494E-002,8.487494E-002,8.487494E-002,8.487494E-002,8.487494E-002,8.487494E-002,8.487494E-002,8.487494E-002,
   **   ~~~   ** Air System Named = CENTRAL SYSTEM did not converge for energy
   **   ~~~   ** Check values should be zero. Most Recent values listed first.
   **   ~~~   ** Demand-to-Supply interface energy check value iteration history trace: 1678.983508,1678.983508,1678.983508,1678.983508,1678.983508,1678.983508,1678.983508,1678.983508,1678.983508,1678.983507,
   **   ~~~   ** Supply-to-demand interface deck 1 energy check value iteration history trace: 2850.960372,2850.960372,2850.960371,2850.960371,2850.960371,2850.960371,2850.960371,2850.960371,2850.960371,2850.960370,
   ** Warning ** SimHVAC: Maximum iterations (20) exceeded for all HVAC loops, at ANNUAL, 04/21 06:15 - 06:20
   **   ~~~   ** The solution for one or more of the Air Loop HVAC systems did not appear to converge
   **   ~~~   ** Air System Named = CENTRAL SYSTEM did not converge for mass flow rate
   **   ~~~   ** Check values should be zero. Most Recent values listed first.
   **   ~~~   ** Demand-to-Supply interface mass flow rate check value iteration history trace: 5.998267E-002,5.998267E-002,5.998267E-002,5.998267E-002,5.998267E-002,5.998267E-002,5.998267E-002,5.998267E-002,5.998267E-002,5.998267E-002,
   **   ~~~   ** Supply-to-demand interface deck 1 mass flow rate check value iteration history trace: 5.998267E-002,5.998267E-002,5.998267E-002,5.998267E-002,5.998267E-002,5.998267E-002,5.998267E-002,5.998267E-002,5.998267E-002,5.998267E-002,
   **   ~~~   ** Air System Named = CENTRAL SYSTEM did not converge for energy
   **   ~~~   ** Check values should be zero. Most Recent values listed first.
   **   ~~~   ** Demand-to-Supply interface energy check value iteration history trace: 1187.876441,1187.876441,1187.876441,1187.876441,1187.876441,1187.876441,1187.876441,1187.876441,1187.876441,1187.876441,
   **   ~~~   ** Supply-to-demand interface deck 1 energy check value iteration history trace: 2304.510374,2304.510374,2304.510374,2304.510374,2304.510373,2304.510373,2304.510373,2304.510373,2304.510373,2304.510373,
   ** Warning ** SimHVAC: Maximum iterations (20) exceeded for all HVAC loops, at ANNUAL, 04/24 07:43 - 07:45
   **   ~~~   ** The solution for one or more of the Air Loop HVAC systems did not appear to converge
   **   ~~~   ** Air System Named = CENTRAL SYSTEM did not converge for mass flow rate
   **   ~~~   ** Check values should be zero. Most Recent values listed first.
   **   ~~~   ** Demand-to-Supply interface mass flow rate check value iteration history trace: 5.296152E-002,5.296152E-002,5.296152E-002,5.296152E-002,5.296152E-002,5.296152E-002,5.296152E-002,5.296152E-002,5.296152E-002,5.296152E-002,
   **   ~~~   ** Supply-to-demand interface deck 1 mass flow rate check value iteration history trace: 5.296152E-002,5.296152E-002,5.296152E-002,5.296152E-002,5.296152E-002,5.296152E-002,5.296152E-002,5.296152E-002,5.296152E-002,5.296152E-002,
   **   ~~~   ** Air System Named = CENTRAL SYSTEM did not converge for energy
   **   ~~~   ** Check values should be zero. Most Recent values listed first.
   **   ~~~   ** Demand-to-Supply interface energy check value iteration history trace: 1045.152960,1045.152960,1045.152960,1045.152960,1045.152960,1045.152960,1045.152960,1045.152960,1045.152960,1045.152960,
   **   ~~~   ** Supply-to-demand interface deck 1 energy check value iteration history trace: 2133.118628,2133.118628,2133.118628,2133.118628,2133.118628,2133.118628,2133.118628,2133.118627,2133.118627,2133.118627,
   ** Warning ** SimHVAC: Maximum iterations (20) exceeded for all HVAC loops, at ANNUAL, 05/04 06:15 - 06:30
   **   ~~~   ** The solution for one or more of the Air Loop HVAC systems did not appear to converge
   **   ~~~   ** Air System Named = CENTRAL SYSTEM did not converge for mass flow rate
   **   ~~~   ** Check values should be zero. Most Recent values listed first.
   **   ~~~   ** Demand-to-Supply interface mass flow rate check value iteration history trace: 5.568207E-002,5.568207E-002,5.568207E-002,5.568207E-002,5.568207E-002,5.568207E-002,5.568207E-002,5.568207E-002,5.568207E-002,5.568207E-002,
   **   ~~~   ** Supply-to-demand interface deck 1 mass flow rate check value iteration history trace: 5.568207E-002,5.568207E-002,5.568207E-002,5.568207E-002,5.568207E-002,5.568207E-002,5.568207E-002,5.568207E-002,5.568207E-002,5.568207E-002,
   **   ~~~   ** Air System Named = CENTRAL SYSTEM did not converge for energy
   **   ~~~   ** Check values should be zero. Most Recent values listed first.
   **   ~~~   ** Demand-to-Supply interface energy check value iteration history trace: 1100.855327,1100.855327,1100.855327,1100.855327,1100.855327,1100.855327,1100.855327,1100.855327,1100.855327,1100.855327,
   **   ~~~   ** Supply-to-demand interface deck 1 energy check value iteration history trace: 2117.623000,2117.623000,2117.623000,2117.623000,2117.623000,2117.623000,2117.623000,2117.623000,2117.623000,2117.623000,
   ** Warning ** WetBulb not converged after 101 iterations(PsyTwbFnTdbWPb)
   **   ~~~   **  Routine=Unknown, Environment=ANNUAL, at Simulation time=05/05 19:55 - 20:00
   **   ~~~   **  Input Temperature = 4.22
   **   ~~~   **  Input Humidity Ratio= 3.157546E-003
   **   ~~~   **  Input Pressure = 78660.00
   **   ~~~   **  Resultant Temperature= 4.01E-003
   ** Warning ** SimHVAC: Maximum iterations (20) exceeded for all HVAC loops, at ANNUAL, 05/23 06:45 - 07:00
   **   ~~~   ** The solution for one or more of the Air Loop HVAC systems did not appear to converge
   **   ~~~   ** Air System Named = CENTRAL SYSTEM did not converge for mass flow rate
   **   ~~~   ** Check values should be zero. Most Recent values listed first.
   **   ~~~   ** Demand-to-Supply interface mass flow rate check value iteration history trace: 5.920492E-002,5.920492E-002,5.920492E-002,5.920492E-002,5.920492E-002,5.920492E-002,5.920492E-002,5.920492E-002,5.920492E-002,5.920492E-002,
   **   ~~~   ** Supply-to-demand interface deck 1 mass flow rate check value iteration history trace: 5.920492E-002,5.920492E-002,5.920492E-002,5.920492E-002,5.920492E-002,5.920492E-002,5.920492E-002,5.920492E-002,5.920492E-002,5.920492E-002,
   **   ~~~   ** Air System Named = CENTRAL SYSTEM did not converge for energy
   **   ~~~   ** Check values should be zero. Most Recent values listed first.
   **   ~~~   ** Demand-to-Supply interface energy check value iteration history trace: 1173.288078,1173.288078,1173.288078,1173.288078,1173.288078,1173.288078,1173.288078,1173.288078,1173.288078,1173.288078,
   **   ~~~   ** Supply-to-demand interface deck 1 energy check value iteration history trace: 2190.373629,2190.373629,2190.373629,2190.373629,2190.373629,2190.373629,2190.373629,2190.373628,2190.373628,2190.373628,
   ** Warning ** SimHVAC: Maximum iterations (20) exceeded for all HVAC loops, at ANNUAL, 06/10 11:55 - 12:00
   **   ~~~   ** The solution for one or more of the Air Loop HVAC systems did not appear to converge
   **   ~~~   ** Air System Named = CENTRAL SYSTEM did not converge for mass flow rate
   **   ~~~   ** Check values should be zero. Most Recent values listed first.
   **   ~~~   ** Demand-to-Supply interface mass flow rate check value iteration history trace: 0.149172,0.149172,0.149172,0.149172,0.149172,0.149172,0.149172,0.149172,0.149172,0.149172,
   **   ~~~   ** Supply-to-demand interface deck 1 mass flow rate check value iteration history trace: 0.149172,0.149172,0.149172,0.149172,0.149172,0.149172,0.149172,0.149172,0.149172,0.149172,
   **   ~~~   ** Air System Named = CENTRAL SYSTEM did not converge for energy
   **   ~~~   ** Check values should be zero. Most Recent values listed first.
   **   ~~~   ** Demand-to-Supply interface energy check value iteration history trace: 3555.600372,3555.600372,3555.600372,3555.600372,3555.600373,3555.600373,3555.600373,3555.600374,3555.600374,3555.600374,
   **   ~~~   ** Supply-to-demand interface deck 1 energy check value iteration history trace: 930.769688,930.769688,930.769688,930.769688,930.769688,930.769689,930.769689,930.769689,930.769689,930.769689,
   ** Warning ** SimHVAC: Maximum iterations (20) exceeded for all HVAC loops, at ANNUAL, 09/18 08:03 - 08:05
   **   ~~~   ** The solution for one or more of the Air Loop HVAC systems did not appear to converge
   **   ~~~   ** Air System Named = CENTRAL SYSTEM did not converge for mass flow rate
   **   ~~~   ** Check values should be zero. Most Recent values listed first.
   **   ~~~   ** Demand-to-Supply interface mass flow rate check value iteration history trace: 5.319767E-002,5.319767E-002,5.319767E-002,5.319767E-002,5.319767E-002,5.319767E-002,5.319767E-002,5.319767E-002,5.319767E-002,5.319767E-002,
   **   ~~~   ** Supply-to-demand interface deck 1 mass flow rate check value iteration history trace: 5.319767E-002,5.319767E-002,5.319767E-002,5.319767E-002,5.319767E-002,5.319767E-002,5.319767E-002,5.319767E-002,5.319767E-002,5.319767E-002,
   **   ~~~   ** Air System Named = CENTRAL SYSTEM did not converge for energy
   **   ~~~   ** Check values should be zero. Most Recent values listed first.
   **   ~~~   ** Demand-to-Supply interface energy check value iteration history trace: 1050.330369,1050.330369,1050.330369,1050.330369,1050.330369,1050.330369,1050.330369,1050.330369,1050.330369,1050.330369,
   **   ~~~   ** Supply-to-demand interface deck 1 energy check value iteration history trace: 2038.043100,2038.043100,2038.043100,2038.043100,2038.043100,2038.043100,2038.043100,2038.043100,2038.043100,2038.043100,
   ** Warning ** SimHVAC: Maximum iterations (20) exceeded for all HVAC loops, at ANNUAL, 09/28 20:15 - 20:30
   **   ~~~   ** The solution for one or more of the Air Loop HVAC systems did not appear to converge
   **   ~~~   ** Air System Named = CENTRAL SYSTEM did not converge for mass flow rate
   **   ~~~   ** Check values should be zero. Most Recent values listed first.
   **   ~~~   ** Demand-to-Supply interface mass flow rate check value iteration history trace: 5.715302E-002,5.715302E-002,5.715302E-002,5.715302E-002,5.715302E-002,5.715302E-002,5.715302E-002,5.715302E-002,5.715302E-002,5.715302E-002,
   **   ~~~   ** Supply-to-demand interface deck 1 mass flow rate check value iteration history trace: 5.715302E-002,5.715302E-002,5.715302E-002,5.715302E-002,5.715302E-002,5.715302E-002,5.715302E-002,5.715302E-002,5.715302E-002,5.715302E-002,
   **   ~~~   ** Air System Named = CENTRAL SYSTEM did not converge for energy
   **   ~~~   ** Check values should be zero. Most Recent values listed first.
   **   ~~~   ** Demand-to-Supply interface energy check value iteration history trace: 1352.983486,1352.983486,1352.983486,1352.983487,1352.983487,1352.983487,1352.983487,1352.983487,1352.983487,1352.983487,
   **   ~~~   ** Supply-to-demand interface deck 1 energy check value iteration history trace: 425.796920,425.796920,425.796920,425.796920,425.796920,425.796920,425.796920,425.796920,425.796920,425.796920,
   ** Warning ** SimHVAC: Maximum iterations (20) exceeded for all HVAC loops, at ANNUAL, 10/02 20:38 - 20:45
   **   ~~~   ** The solution for one or more of the Air Loop HVAC systems did not appear to converge
   **   ~~~   ** Air System Named = CENTRAL SYSTEM did not converge for mass flow rate
   **   ~~~   ** Check values should be zero. Most Recent values listed first.
   **   ~~~   ** Demand-to-Supply interface mass flow rate check value iteration history trace: 9.813786E-002,9.813786E-002,9.813786E-002,9.813786E-002,9.813786E-002,9.813786E-002,9.813786E-002,9.813786E-002,9.813786E-002,9.813786E-002,
   **   ~~~   ** Supply-to-demand interface deck 1 mass flow rate check value iteration history trace: 9.813786E-002,9.813786E-002,9.813786E-002,9.813786E-002,9.813786E-002,9.813786E-002,9.813786E-002,9.813786E-002,9.813786E-002,9.813786E-002,
   **   ~~~   ** Air System Named = CENTRAL SYSTEM did not converge for energy
   **   ~~~   ** Check values should be zero. Most Recent values listed first.
   **   ~~~   ** Demand-to-Supply interface energy check value iteration history trace: 2319.355153,2319.355153,2319.355154,2319.355154,2319.355154,2319.355154,2319.355154,2319.355154,2319.355154,2319.355155,
   **   ~~~   ** Supply-to-demand interface deck 1 energy check value iteration history trace: 835.796870,835.796870,835.796871,835.796871,835.796871,835.796871,835.796871,835.796871,835.796871,835.796871,
   ************* Simulation Error Summary *************
   ** Warning ** The following Report Variables were requested but not generated -- check.rdd file
   **   ~~~   ** Either the IDF did not contain these elements, the variable name is misspelled,
   **   ~~~   ** or the requested variable is an advanced output which requires Output : Diagnostics, DisplayAdvancedReportVariables;
   ************* Key=*, VarName=BASEBOARD TOTAL HEATING ENERGY, Frequency=
   ************* Key=*, VarName=WATER HEATER NATURALGAS ENERGY, Frequency=
   ************* Key=*, VarName=COOLING COIL TOTAL HEATING ENERGY, Frequency=
   ************* There are 34 unused schedules in input.
   ************* There are 388 unused week schedules in input.
   ************* There are 396 unused day schedules in input.
   ************* Use Output:Diagnostics,DisplayUnusedSchedules; to see them.
   *************
   ************* ===== Recurring Error Summary =====
   ************* The following recurring error messages occurred.
   *************
   *************  ** Warning ** "TOTAL HOT WATER LOAD" - Target water temperature should be less than or equal to the hot water temperature error continues...
   *************  **   ~~~   **   This error occurred 135775 total times;
   *************  **   ~~~   **   during Warmup 0 times;
   *************  **   ~~~   **   during Sizing 0 times.
   *************  **   ~~~   **   Max=10.837191  Min=3.406294E-004
   *************
   *************  ** Warning ** Temperature out of range [-100. to 200.] (PsyPsatFnTemp)
   *************  **   ~~~   **   This error occurred 70 total times;
   *************  **   ~~~   **   during Warmup 0 times;
   *************  **   ~~~   **   during Sizing 0 times.
   *************  **   ~~~   **   Max=-103.486206 C  Min=-1366.536072 C
   *************
   *************  ** Warning ** WetBulb not converged after max iterations(PsyTwbFnTdbWPb)
   *************  **   ~~~   **   This error occurred 2 total times;
   *************  **   ~~~   **   during Warmup 0 times;
   *************  **   ~~~   **   during Sizing 0 times.
   *************
   *************  ** Warning ** SimHVAC: Exceeding Maximum iterations for all HVAC loops, during ANNUAL continues
   *************  **   ~~~   **   This error occurred 5 total times;
   *************  **   ~~~   **   during Warmup 0 times;
   *************  **   ~~~   **   during Sizing 0 times.
   *************
   *************
   ************* ===== Final Error Summary =====
   ************* The following error categories occurred.  Consider correcting or noting.
   ************* Nominally Unused Constructions
   ************* ..The nominally unused constructions warning is provided to alert you to potential conditions that can cause
   ************* ..extra time during simulation. Each construction is calculated by the algorithm indicated in the HeatBalanceAlgorithm
   ************* ..object. You may remove the constructions indicated (when you use the DisplayExtraWarnings option).
   *************
   ************* EnergyPlus Warmup Error Summary. During Warmup: 1 Warning; 0 Severe Errors.
   ************* EnergyPlus Sizing Error Summary. During Sizing: 4 Warning; 0 Severe Errors.
   ************* EnergyPlus Completed Successfully-- 135884 Warning; 0 Severe Errors; Elapsed Time=00hr 06min 16.93sec
