Program Version,EnergyPlus, Version 22.2.0-c249759bad, YMD=2023.09.01 19:50,
   ************* Beginning Zone Sizing Calculations
   ** Warning ** ProcessScheduleInput: Schedule:Constant="ALWAYS ON DISCRETE", Schedule Type Limits Name="ONOFF" not found -- will not be validated
   ** Warning ** Foundation:Kiva="KIVA FOUNDATION", no Interior Horizontal Insulation Material Name defined
   **   ~~~   ** Interior Horizontal Insulation Depth will not be used.
   ** Warning ** CheckUsedConstructions: There are 15 nominally unused constructions in input.
   **   ~~~   ** Each Unused construction is shown.
   ************* Construction=INTERIOR FLOOR
   ************* Construction=INTERIOR WINDOW
   ************* Construction=EXTERIOR DOOR
   ************* Construction=INTERIOR DOOR
   ************* Construction=GABLE CONSTRUCTION
   ************* Construction=CRAWL_FLOOR
   ************* Construction=INSULATED PIPE
   ************* Construction=PLAIN PIPE
   ************* Construction=TDD PIPE
   ************* Construction=TDD DOME
   ************* Construction=TDD DIFFUSER
   ************* Construction=CRAWL WALL
   ************* Construction=CEILING-FLOOR-LAYER
   ************* Construction=SLAB CONSTRUCTION W FULL R10 INSULATION
   ************* Construction=SLAB CONSTRUCTION W FULL R5 INSULATION
   ** Warning ** GetDXCoils: Coil:Heating:DX:SingleSpeed="DX_HEATING_COIL" curve values
   **   ~~~   ** ... Defrost Energy Input Ratio Function of Temperature Curve Name = DEFROSTEIR output is not equal to 1.0 (+ or - 10%) at rated conditions.
   **   ~~~   ** ... Curve output at rated conditions = 0.152
   ************* Beginning System Sizing Calculations
   ************* Beginning Plant Sizing Calculations
   ** Warning ** Coil:WaterHeating:AirToWaterHeatPump:Wrapped "HEAT PUMP WATER HEATER EVAPORATOR": Rated air volume flow rate per watt of rated total water heating capacity is out of range
   **   ~~~   ** Min Rated Vol Flow Per Watt=[4.027E-005], Rated Vol Flow Per Watt=[1.510E-004], Max Rated Vol Flow Per Watt=[8.056E-005]. See Input-Output Reference Manual for valid range.
   ************* SizeFan: : Potential issue with equipment sizing for Fan:OnOff HEAT PUMP WATER HEATER FAN
   **   ~~~   ** User-Specified Maximum Flow Rate [m3/s] = 0.22653
   **   ~~~   ** differs from Design Size Maximum Flow Rate [m3/s] = 7.55250E-002
   **   ~~~   ** This may, or may not, indicate mismatched component sizes.
   **   ~~~   ** Verify that the value entered is intended and is consistent with other components.
   ** Warning ** Water heater = WATER HEATER TANK:  Recovery Efficiency and Energy Factor could not be calculated during the test for standard ratings
   **   ~~~   ** Setpoint was never recovered and/or heater never turned on
   ** Warning ** Check input. Pump nominal power or motor efficiency is set to 0, for pump=MAINS PRESSURE
   ** Warning ** Output:Meter: invalid Key Name="ELECTRIC_RANGE:INTERIOREQUIPMENT:ELECTRICITY" - not found.
   ** Warning ** Output:Meter: invalid Key Name="ELECTRIC_DRYER:INTERIOREQUIPMENT:ELECTRICITY" - not found.
   ** Warning ** Output:Meter: invalid Key Name="HEATRECOVERY:ELECTRICITY" - not found.
   ** Warning ** Output:Meter: invalid Key Name="HEATING:NATURALGAS" - not found.
   ** Warning ** Output:Meter: invalid Key Name="WATERSYSTEMS:NATURALGAS" - not found.
   ** Warning ** Output:Meter: invalid Key Name="PROPANE:FACILITY" - not found.
   ** Warning ** Output:Meter: invalid Key Name="HEATING:PROPANE" - not found.
   ************* Testing Individual Branch Integrity
   ************* All Branches passed integrity testing
   ************* Testing Individual Supply Air Path Integrity
   ************* All Supply Air Paths passed integrity testing
   ************* Testing Individual Return Air Path Integrity
   ************* All Return Air Paths passed integrity testing
   ************* No node connection errors were found.
   ************* Beginning Simulation
   ** Warning ** AirflowNetwork::Solver::validate_distribution: Heat pump water heater is simulated along with an AirflowNetwork but is not included in the AirflowNetwork.
   ** Warning ** CalcEquipmentFlowRates: "TOTAL HOT WATER LOAD" - Target water temperature is greater than the hot water temperature by (6.17 C)
   **   ~~~   **  Environment=EXTREME_WINTER, at Simulation time=12/22 06:00 - 06:15
   **   ~~~   ** ...target water temperature     = 53.33 C
   **   ~~~   ** ...hot water temperature        = 47.17 C
   **   ~~~   ** ...Target water temperature should be less than or equal to the hot water temperature. Verify temperature setpoints and schedules.
   ** Warning ** SimHVAC: Maximum iterations (20) exceeded for all HVAC loops, at ANNUAL, 01/13 00:23 - 00:30
   **   ~~~   ** The solution for one or more of the Air Loop HVAC systems did not appear to converge
   **   ~~~   ** Air System Named = CENTRAL SYSTEM did not converge for mass flow rate
   **   ~~~   ** Check values should be zero. Most Recent values listed first.
   **   ~~~   ** Demand-to-Supply interface mass flow rate check value iteration history trace: 3.112526E-002,3.112526E-002,3.112526E-002,3.112526E-002,3.112526E-002,3.112526E-002,3.112526E-002,3.112526E-002,3.112526E-002,3.112526E-002,
   **   ~~~   ** Supply-to-demand interface deck 1 mass flow rate check value iteration history trace: 3.112526E-002,3.112526E-002,3.112526E-002,3.112526E-002,3.112526E-002,3.112526E-002,3.112526E-002,3.112526E-002,3.112526E-002,3.112526E-002,
   **   ~~~   ** Air System Named = CENTRAL SYSTEM did not converge for energy
   **   ~~~   ** Check values should be zero. Most Recent values listed first.
   **   ~~~   ** Demand-to-Supply interface energy check value iteration history trace: 581.985038,581.985038,581.985038,581.985038,581.985038,581.985038,581.985038,581.985038,581.985038,581.985038,
   **   ~~~   ** Supply-to-demand interface deck 1 energy check value iteration history trace: 1047.602288,1047.602288,1047.602288,1047.602288,1047.602288,1047.602288,1047.602288,1047.602288,1047.602288,1047.602288,
   ** Warning ** SimHVAC: Maximum iterations (20) exceeded for all HVAC loops, at ANNUAL, 01/21 19:23 - 19:30
   **   ~~~   ** The solution for one or more of the Air Loop HVAC systems did not appear to converge
   **   ~~~   ** Air System Named = CENTRAL SYSTEM did not converge for mass flow rate
   **   ~~~   ** Check values should be zero. Most Recent values listed first.
   **   ~~~   ** Demand-to-Supply interface mass flow rate check value iteration history trace: 5.877935E-002,5.877935E-002,5.877935E-002,5.877935E-002,5.877935E-002,5.877935E-002,5.877935E-002,5.877935E-002,5.877935E-002,5.877935E-002,
   **   ~~~   ** Supply-to-demand interface deck 1 mass flow rate check value iteration history trace: 5.877935E-002,5.877935E-002,5.877935E-002,5.877935E-002,5.877935E-002,5.877935E-002,5.877935E-002,5.877935E-002,5.877935E-002,5.877935E-002,
   **   ~~~   ** Air System Named = CENTRAL SYSTEM did not converge for energy
   **   ~~~   ** Check values should be zero. Most Recent values listed first.
   **   ~~~   ** Demand-to-Supply interface energy check value iteration history trace: 1165.310397,1165.310397,1165.310397,1165.310397,1165.310397,1165.310397,1165.310397,1165.310397,1165.310397,1165.310397,
   **   ~~~   ** Supply-to-demand interface deck 1 energy check value iteration history trace: 2017.821628,2017.821628,2017.821628,2017.821628,2017.821628,2017.821628,2017.821628,2017.821628,2017.821628,2017.821628,
   ** Warning ** SimHVAC: Maximum iterations (20) exceeded for all HVAC loops, at ANNUAL, 01/21 19:45 - 20:00
   **   ~~~   ** The solution for one or more of the Air Loop HVAC systems did not appear to converge
   **   ~~~   ** Air System Named = CENTRAL SYSTEM did not converge for mass flow rate
   **   ~~~   ** Check values should be zero. Most Recent values listed first.
   **   ~~~   ** Demand-to-Supply interface mass flow rate check value iteration history trace: 5.645447E-002,5.645447E-002,5.645447E-002,5.645447E-002,5.645447E-002,5.645447E-002,5.645447E-002,5.645447E-002,5.645447E-002,5.645447E-002,
   **   ~~~   ** Supply-to-demand interface deck 1 mass flow rate check value iteration history trace: 5.645447E-002,5.645447E-002,5.645447E-002,5.645447E-002,5.645447E-002,5.645447E-002,5.645447E-002,5.645447E-002,5.645447E-002,5.645447E-002,
   **   ~~~   ** Air System Named = CENTRAL SYSTEM did not converge for energy
   **   ~~~   ** Check values should be zero. Most Recent values listed first.
   **   ~~~   ** Demand-to-Supply interface energy check value iteration history trace: 1112.644804,1112.644804,1112.644804,1112.644804,1112.644804,1112.644804,1112.644804,1112.644804,1112.644804,1112.644804,
   **   ~~~   ** Supply-to-demand interface deck 1 energy check value iteration history trace: 1926.057076,1926.057076,1926.057076,1926.057076,1926.057076,1926.057076,1926.057076,1926.057076,1926.057076,1926.057076,
   ** Warning ** SimHVAC: Maximum iterations (20) exceeded for all HVAC loops, at ANNUAL, 01/25 13:15 - 13:30
   **   ~~~   ** The solution for one or more of the Air Loop HVAC systems did not appear to converge
   **   ~~~   ** Air System Named = CENTRAL SYSTEM did not converge for mass flow rate
   **   ~~~   ** Check values should be zero. Most Recent values listed first.
   **   ~~~   ** Demand-to-Supply interface mass flow rate check value iteration history trace: 5.352597E-002,5.352597E-002,5.352597E-002,5.352597E-002,5.352597E-002,5.352597E-002,5.352597E-002,5.352597E-002,5.352597E-002,5.352597E-002,
   **   ~~~   ** Supply-to-demand interface deck 1 mass flow rate check value iteration history trace: 5.352597E-002,5.352597E-002,5.352597E-002,5.352597E-002,5.352597E-002,5.352597E-002,5.352597E-002,5.352597E-002,5.352597E-002,5.352597E-002,
   **   ~~~   ** Air System Named = CENTRAL SYSTEM did not converge for energy
   **   ~~~   ** Check values should be zero. Most Recent values listed first.
   **   ~~~   ** Demand-to-Supply interface energy check value iteration history trace: 1061.014023,1061.014023,1061.014023,1061.014023,1061.014023,1061.014023,1061.014023,1061.014023,1061.014023,1061.014023,
   **   ~~~   ** Supply-to-demand interface deck 1 energy check value iteration history trace: 1869.492538,1869.492538,1869.492537,1869.492537,1869.492537,1869.492537,1869.492537,1869.492537,1869.492537,1869.492537,
   ** Warning ** SimHVAC: Maximum iterations (20) exceeded for all HVAC loops, at ANNUAL, 01/25 17:15 - 17:18
   **   ~~~   ** The solution for one or more of the Air Loop HVAC systems did not appear to converge
   **   ~~~   ** Air System Named = CENTRAL SYSTEM did not converge for mass flow rate
   **   ~~~   ** Check values should be zero. Most Recent values listed first.
   **   ~~~   ** Demand-to-Supply interface mass flow rate check value iteration history trace: 6.363959E-002,6.363959E-002,6.363959E-002,6.363959E-002,6.363959E-002,6.363959E-002,6.363959E-002,6.363959E-002,6.363959E-002,6.363959E-002,
   **   ~~~   ** Supply-to-demand interface deck 1 mass flow rate check value iteration history trace: 6.363959E-002,6.363959E-002,6.363959E-002,6.363959E-002,6.363959E-002,6.363959E-002,6.363959E-002,6.363959E-002,6.363959E-002,6.363959E-002,
   **   ~~~   ** Air System Named = CENTRAL SYSTEM did not converge for energy
   **   ~~~   ** Check values should be zero. Most Recent values listed first.
   **   ~~~   ** Demand-to-Supply interface energy check value iteration history trace: 1258.389948,1258.389948,1258.389948,1258.389948,1258.389948,1258.389948,1258.389948,1258.389947,1258.389947,1258.389947,
   **   ~~~   ** Supply-to-demand interface deck 1 energy check value iteration history trace: 2188.631299,2188.631299,2188.631299,2188.631298,2188.631298,2188.631298,2188.631298,2188.631298,2188.631298,2188.631298,
   ** Warning ** SimHVAC: Maximum iterations (20) exceeded for all HVAC loops, at ANNUAL, 01/26 13:00 - 13:15
   **   ~~~   ** The solution for one or more of the Air Loop HVAC systems did not appear to converge
   **   ~~~   ** Air System Named = CENTRAL SYSTEM did not converge for mass flow rate
   **   ~~~   ** Check values should be zero. Most Recent values listed first.
   **   ~~~   ** Demand-to-Supply interface mass flow rate check value iteration history trace: 6.334171E-002,6.334171E-002,6.334171E-002,6.334171E-002,6.334171E-002,6.334171E-002,6.334171E-002,6.334171E-002,6.334171E-002,6.334171E-002,
   **   ~~~   ** Supply-to-demand interface deck 1 mass flow rate check value iteration history trace: 6.334171E-002,6.334171E-002,6.334171E-002,6.334171E-002,6.334171E-002,6.334171E-002,6.334171E-002,6.334171E-002,6.334171E-002,6.334171E-002,
   **   ~~~   ** Air System Named = CENTRAL SYSTEM did not converge for energy
   **   ~~~   ** Check values should be zero. Most Recent values listed first.
   **   ~~~   ** Demand-to-Supply interface energy check value iteration history trace: 1255.230951,1255.230951,1255.230951,1255.230951,1255.230951,1255.230951,1255.230951,1255.230951,1255.230950,1255.230950,
   **   ~~~   ** Supply-to-demand interface deck 1 energy check value iteration history trace: 2121.585812,2121.585811,2121.585811,2121.585811,2121.585811,2121.585811,2121.585811,2121.585811,2121.585811,2121.585811,
   ** Warning ** SimHVAC: Maximum iterations (20) exceeded for all HVAC loops, at ANNUAL, 01/28 20:15 - 20:30
   **   ~~~   ** The solution for one or more of the Air Loop HVAC systems did not appear to converge
   **   ~~~   ** Air System Named = CENTRAL SYSTEM did not converge for mass flow rate
   **   ~~~   ** Check values should be zero. Most Recent values listed first.
   **   ~~~   ** Demand-to-Supply interface mass flow rate check value iteration history trace: 1.827354E-002,1.827354E-002,1.827354E-002,1.827354E-002,1.827354E-002,1.827354E-002,1.827354E-002,1.827354E-002,1.827354E-002,1.827354E-002,
   **   ~~~   ** Supply-to-demand interface deck 1 mass flow rate check value iteration history trace: 1.827354E-002,1.827354E-002,1.827354E-002,1.827354E-002,1.827354E-002,1.827354E-002,1.827354E-002,1.827354E-002,1.827354E-002,1.827354E-002,
   **   ~~~   ** Air System Named = CENTRAL SYSTEM did not converge for energy
   **   ~~~   ** Check values should be zero. Most Recent values listed first.
   **   ~~~   ** Demand-to-Supply interface energy check value iteration history trace: 358.720485,358.720485,358.720485,358.720485,358.720485,358.720485,358.720485,358.720485,358.720485,358.720485,
   **   ~~~   ** Supply-to-demand interface deck 1 energy check value iteration history trace: 640.320035,640.320035,640.320035,640.320035,640.320035,640.320035,640.320035,640.320035,640.320035,640.320035,
   ** Warning ** SimHVAC: Maximum iterations (20) exceeded for all HVAC loops, at ANNUAL, 01/29 13:40 - 13:45
   **   ~~~   ** The solution for one or more of the Air Loop HVAC systems did not appear to converge
   **   ~~~   ** Air System Named = CENTRAL SYSTEM did not converge for mass flow rate
   **   ~~~   ** Check values should be zero. Most Recent values listed first.
   **   ~~~   ** Demand-to-Supply interface mass flow rate check value iteration history trace: 3.246493E-002,3.246493E-002,3.246493E-002,3.246493E-002,3.246493E-002,3.246493E-002,3.246493E-002,3.246493E-002,3.246493E-002,3.246493E-002,
   **   ~~~   ** Supply-to-demand interface deck 1 mass flow rate check value iteration history trace: 3.246493E-002,3.246493E-002,3.246493E-002,3.246493E-002,3.246493E-002,3.246493E-002,3.246493E-002,3.246493E-002,3.246493E-002,3.246493E-002,
   **   ~~~   ** Air System Named = CENTRAL SYSTEM did not converge for energy
   **   ~~~   ** Check values should be zero. Most Recent values listed first.
   **   ~~~   ** Demand-to-Supply interface energy check value iteration history trace: 637.766225,637.766225,637.766225,637.766225,637.766225,637.766225,637.766225,637.766225,637.766225,637.766225,
   **   ~~~   ** Supply-to-demand interface deck 1 energy check value iteration history trace: 1151.553787,1151.553787,1151.553787,1151.553787,1151.553787,1151.553787,1151.553787,1151.553787,1151.553787,1151.553787,
   ** Warning ** SimHVAC: Maximum iterations (20) exceeded for all HVAC loops, at ANNUAL, 02/19 09:00 - 09:05
   **   ~~~   ** The solution for one or more of the Air Loop HVAC systems did not appear to converge
   **   ~~~   ** Air System Named = CENTRAL SYSTEM did not converge for mass flow rate
   **   ~~~   ** Check values should be zero. Most Recent values listed first.
   **   ~~~   ** Demand-to-Supply interface mass flow rate check value iteration history trace: 6.793459E-002,6.793459E-002,6.793459E-002,6.793459E-002,6.793459E-002,6.793459E-002,6.793459E-002,6.793459E-002,6.793459E-002,6.793459E-002,
   **   ~~~   ** Supply-to-demand interface deck 1 mass flow rate check value iteration history trace: 6.793459E-002,6.793459E-002,6.793459E-002,6.793459E-002,6.793459E-002,6.793459E-002,6.793459E-002,6.793459E-002,6.793459E-002,6.793459E-002,
   **   ~~~   ** Air System Named = CENTRAL SYSTEM did not converge for energy
   **   ~~~   ** Check values should be zero. Most Recent values listed first.
   **   ~~~   ** Demand-to-Supply interface energy check value iteration history trace: 1346.224923,1346.224923,1346.224923,1346.224923,1346.224923,1346.224923,1346.224922,1346.224922,1346.224922,1346.224922,
   **   ~~~   ** Supply-to-demand interface deck 1 energy check value iteration history trace: 2299.067857,2299.067857,2299.067856,2299.067856,2299.067856,2299.067856,2299.067856,2299.067856,2299.067856,2299.067856,
   ** Warning ** SimHVAC: Maximum iterations (20) exceeded for all HVAC loops, at ANNUAL, 03/05 11:15 - 11:30
   **   ~~~   ** The solution for one or more of the Air Loop HVAC systems did not appear to converge
   **   ~~~   ** Air System Named = CENTRAL SYSTEM did not converge for mass flow rate
   **   ~~~   ** Check values should be zero. Most Recent values listed first.
   **   ~~~   ** Demand-to-Supply interface mass flow rate check value iteration history trace: 5.520186E-002,5.520186E-002,5.520186E-002,5.520186E-002,5.520186E-002,5.520186E-002,5.520186E-002,5.520186E-002,5.520186E-002,5.520186E-002,
   **   ~~~   ** Supply-to-demand interface deck 1 mass flow rate check value iteration history trace: 5.520186E-002,5.520186E-002,5.520186E-002,5.520186E-002,5.520186E-002,5.520186E-002,5.520186E-002,5.520186E-002,5.520186E-002,5.520186E-002,
   **   ~~~   ** Air System Named = CENTRAL SYSTEM did not converge for energy
   **   ~~~   ** Check values should be zero. Most Recent values listed first.
   **   ~~~   ** Demand-to-Supply interface energy check value iteration history trace: 1093.912580,1093.912580,1093.912580,1093.912580,1093.912580,1093.912580,1093.912580,1093.912580,1093.912580,1093.912579,
   **   ~~~   ** Supply-to-demand interface deck 1 energy check value iteration history trace: 1993.292879,1993.292878,1993.292878,1993.292878,1993.292878,1993.292878,1993.292878,1993.292878,1993.292878,1993.292878,
   ** Warning ** SimHVAC: Maximum iterations (20) exceeded for all HVAC loops, at ANNUAL, 03/07 07:45 - 07:50
   **   ~~~   ** The solution for one or more of the Air Loop HVAC systems did not appear to converge
   **   ~~~   ** Air System Named = CENTRAL SYSTEM did not converge for mass flow rate
   **   ~~~   ** Check values should be zero. Most Recent values listed first.
   **   ~~~   ** Demand-to-Supply interface mass flow rate check value iteration history trace: 6.167899E-002,6.167899E-002,6.167899E-002,6.167899E-002,6.167899E-002,6.167899E-002,6.167899E-002,6.167899E-002,6.167899E-002,6.167899E-002,
   **   ~~~   ** Supply-to-demand interface deck 1 mass flow rate check value iteration history trace: 6.167899E-002,6.167899E-002,6.167899E-002,6.167899E-002,6.167899E-002,6.167899E-002,6.167899E-002,6.167899E-002,6.167899E-002,6.167899E-002,
   **   ~~~   ** Air System Named = CENTRAL SYSTEM did not converge for energy
   **   ~~~   ** Check values should be zero. Most Recent values listed first.
   **   ~~~   ** Demand-to-Supply interface energy check value iteration history trace: 1222.249276,1222.249276,1222.249276,1222.249276,1222.249276,1222.249276,1222.249276,1222.249276,1222.249276,1222.249276,
   **   ~~~   ** Supply-to-demand interface deck 1 energy check value iteration history trace: 2134.417426,2134.417426,2134.417426,2134.417426,2134.417426,2134.417426,2134.417426,2134.417426,2134.417426,2134.417426,
   ** Warning ** SimHVAC: Maximum iterations (20) exceeded for all HVAC loops, at ANNUAL, 03/17 10:15 - 10:30
   **   ~~~   ** The solution for one or more of the Air Loop HVAC systems did not appear to converge
   **   ~~~   ** Air System Named = CENTRAL SYSTEM did not converge for mass flow rate
   **   ~~~   ** Check values should be zero. Most Recent values listed first.
   **   ~~~   ** Demand-to-Supply interface mass flow rate check value iteration history trace: 6.239952E-002,6.239952E-002,6.239952E-002,6.239952E-002,6.239952E-002,6.239952E-002,6.239952E-002,6.239952E-002,6.239952E-002,6.239952E-002,
   **   ~~~   ** Supply-to-demand interface deck 1 mass flow rate check value iteration history trace: 6.239952E-002,6.239952E-002,6.239952E-002,6.239952E-002,6.239952E-002,6.239952E-002,6.239952E-002,6.239952E-002,6.239952E-002,6.239952E-002,
   **   ~~~   ** Air System Named = CENTRAL SYSTEM did not converge for energy
   **   ~~~   ** Check values should be zero. Most Recent values listed first.
   **   ~~~   ** Demand-to-Supply interface energy check value iteration history trace: 1215.229347,1215.229347,1215.229347,1215.229347,1215.229347,1215.229347,1215.229347,1215.229347,1215.229347,1215.229347,
   **   ~~~   ** Supply-to-demand interface deck 1 energy check value iteration history trace: 2118.070768,2118.070768,2118.070768,2118.070768,2118.070768,2118.070768,2118.070768,2118.070767,2118.070767,2118.070767,
   ** Warning ** SimHVAC: Maximum iterations (20) exceeded for all HVAC loops, at ANNUAL, 03/28 18:15 - 18:30
   **   ~~~   ** The solution for one or more of the Air Loop HVAC systems did not appear to converge
   **   ~~~   ** Air System Named = CENTRAL SYSTEM did not converge for mass flow rate
   **   ~~~   ** Check values should be zero. Most Recent values listed first.
   **   ~~~   ** Demand-to-Supply interface mass flow rate check value iteration history trace: 5.850861E-002,5.850861E-002,5.850861E-002,5.850861E-002,5.850861E-002,5.850861E-002,5.850861E-002,5.850861E-002,5.850861E-002,5.850861E-002,
   **   ~~~   ** Supply-to-demand interface deck 1 mass flow rate check value iteration history trace: 5.850861E-002,5.850861E-002,5.850861E-002,5.850861E-002,5.850861E-002,5.850861E-002,5.850861E-002,5.850861E-002,5.850861E-002,5.850861E-002,
   **   ~~~   ** Air System Named = CENTRAL SYSTEM did not converge for energy
   **   ~~~   ** Check values should be zero. Most Recent values listed first.
   **   ~~~   ** Demand-to-Supply interface energy check value iteration history trace: 1150.440932,1150.440932,1150.440932,1150.440932,1150.440932,1150.440932,1150.440932,1150.440932,1150.440932,1150.440931,
   **   ~~~   ** Supply-to-demand interface deck 1 energy check value iteration history trace: 2050.422377,2050.422377,2050.422377,2050.422377,2050.422376,2050.422376,2050.422376,2050.422376,2050.422376,2050.422376,
   ** Warning ** SimHVAC: Maximum iterations (20) exceeded for all HVAC loops, at ANNUAL, 03/30 08:00 - 08:15
   **   ~~~   ** The solution for one or more of the Air Loop HVAC systems did not appear to converge
   **   ~~~   ** Air System Named = CENTRAL SYSTEM did not converge for mass flow rate
   **   ~~~   ** Check values should be zero. Most Recent values listed first.
   **   ~~~   ** Demand-to-Supply interface mass flow rate check value iteration history trace: 6.577307E-002,6.577307E-002,6.577307E-002,6.577307E-002,6.577307E-002,6.577307E-002,6.577307E-002,6.577307E-002,6.577307E-002,6.577307E-002,
   **   ~~~   ** Supply-to-demand interface deck 1 mass flow rate check value iteration history trace: 6.577307E-002,6.577307E-002,6.577307E-002,6.577307E-002,6.577307E-002,6.577307E-002,6.577307E-002,6.577307E-002,6.577307E-002,6.577307E-002,
   **   ~~~   ** Air System Named = CENTRAL SYSTEM did not converge for energy
   **   ~~~   ** Check values should be zero. Most Recent values listed first.
   **   ~~~   ** Demand-to-Supply interface energy check value iteration history trace: 1302.836025,1302.836025,1302.836025,1302.836025,1302.836025,1302.836025,1302.836025,1302.836025,1302.836025,1302.836025,
   **   ~~~   ** Supply-to-demand interface deck 1 energy check value iteration history trace: 2246.442434,2246.442434,2246.442434,2246.442434,2246.442434,2246.442434,2246.442433,2246.442433,2246.442433,2246.442433,
   ************* Simulation Error Summary *************
   ** Warning ** The following Report Variables were requested but not generated -- check.rdd file
   **   ~~~   ** Either the IDF did not contain these elements, the variable name is misspelled,
   **   ~~~   ** or the requested variable is an advanced output which requires Output : Diagnostics, DisplayAdvancedReportVariables;
   ************* Key=*, VarName=BASEBOARD TOTAL HEATING ENERGY, Frequency=
   ************* Key=*, VarName=WATER HEATER NATURALGAS ENERGY, Frequency=
   ************* Key=*, VarName=COOLING COIL TOTAL HEATING ENERGY, Frequency=
   ************* There are 34 unused schedules in input.
   ************* There are 388 unused week schedules in input.
   ************* There are 396 unused day schedules in input.
   ************* Use Output:Diagnostics,DisplayUnusedSchedules; to see them.
   *************
   ************* ===== Recurring Error Summary =====
   ************* The following recurring error messages occurred.
   *************
   *************  ** Warning ** "TOTAL HOT WATER LOAD" - Target water temperature should be less than or equal to the hot water temperature error continues...
   *************  **   ~~~   **   This error occurred 115143 total times;
   *************  **   ~~~   **   during Warmup 0 times;
   *************  **   ~~~   **   during Sizing 0 times.
   *************  **   ~~~   **   Max=10.939158  Min=5.483340E-004
   *************
   *************  ** Warning ** SimHVAC: Exceeding Maximum iterations for all HVAC loops, during ANNUAL continues
   *************  **   ~~~   **   This error occurred 16 total times;
   *************  **   ~~~   **   during Warmup 0 times;
   *************  **   ~~~   **   during Sizing 0 times.
   *************
   *************
   ************* ===== Final Error Summary =====
   ************* The following error categories occurred.  Consider correcting or noting.
   ************* Nominally Unused Constructions
   ************* ..The nominally unused constructions warning is provided to alert you to potential conditions that can cause
   ************* ..extra time during simulation. Each construction is calculated by the algorithm indicated in the HeatBalanceAlgorithm
   ************* ..object. You may remove the constructions indicated (when you use the DisplayExtraWarnings option).
   *************
   ************* EnergyPlus Warmup Error Summary. During Warmup: 1 Warning; 0 Severe Errors.
   ************* EnergyPlus Sizing Error Summary. During Sizing: 4 Warning; 0 Severe Errors.
   ************* EnergyPlus Completed Successfully-- 115190 Warning; 0 Severe Errors; Elapsed Time=00hr 01min 24.62sec
