Program Version,EnergyPlus, Version 22.2.0-c249759bad, YMD=2023.09.01 18:49,
   ************* Beginning Zone Sizing Calculations
   ** Warning ** ProcessScheduleInput: Schedule:Constant="ALWAYS ON DISCRETE", Schedule Type Limits Name="ONOFF" not found -- will not be validated
   ** Warning ** Foundation:Kiva="KIVA FOUNDATION", no Interior Horizontal Insulation Material Name defined
   **   ~~~   ** Interior Horizontal Insulation Depth will not be used.
   ** Warning ** CheckUsedConstructions: There are 15 nominally unused constructions in input.
   **   ~~~   ** Each Unused construction is shown.
   ************* Construction=INTERIOR FLOOR
   ************* Construction=INTERIOR WINDOW
   ************* Construction=EXTERIOR DOOR
   ************* Construction=INTERIOR DOOR
   ************* Construction=GABLE CONSTRUCTION
   ************* Construction=CRAWL_FLOOR
   ************* Construction=INSULATED PIPE
   ************* Construction=PLAIN PIPE
   ************* Construction=TDD PIPE
   ************* Construction=TDD DOME
   ************* Construction=TDD DIFFUSER
   ************* Construction=CRAWL WALL
   ************* Construction=CEILING-FLOOR-LAYER
   ************* Construction=SLAB CONSTRUCTION W FULL R10 INSULATION
   ************* Construction=SLAB CONSTRUCTION W FULL R5 INSULATION
   ** Warning ** GetDXCoils: Coil:Heating:DX:SingleSpeed="DX_HEATING_COIL" curve values
   **   ~~~   ** ... Defrost Energy Input Ratio Function of Temperature Curve Name = DEFROSTEIR output is not equal to 1.0 (+ or - 10%) at rated conditions.
   **   ~~~   ** ... Curve output at rated conditions = 0.152
   ************* Beginning System Sizing Calculations
   ************* Beginning Plant Sizing Calculations
   ** Warning ** SizeDXCoil Coil:Cooling:DX:SingleSpeed DX_COOLING_COIL
   **   ~~~   ** ...Gross Rated Total Cooling Capacity [W] will be limited by the maximum rated volume flow per rated total capacity ratio.
   **   ~~~   ** ...DX coil volume flow rate ( m3/s ) = 0.496263
   **   ~~~   ** ...Requested capacity ( W ) = 6375.000
   **   ~~~   ** ...Requested flow/capacity ratio ( m3/s/W ) = 7.784E-005
   **   ~~~   ** ...Maximum flow/capacity ratio ( m3/s/W ) = 6.041E-005
   **   ~~~   ** ...Adjusted capacity ( W ) = 8214.923
   ** Warning ** SizeDXCoil Coil:Heating:DX:SingleSpeed DX_HEATING_COIL
   **   ~~~   ** ...Gross Rated Heating Capacity [W] will be limited by the maximum rated volume flow per rated total capacity ratio.
   **   ~~~   ** ...DX coil volume flow rate ( m3/s ) = 0.496263
   **   ~~~   ** ...Requested capacity ( W ) = 8214.923
   **   ~~~   ** ...Requested flow/capacity ratio ( m3/s/W ) = 6.041E-005
   **   ~~~   ** ...Maximum flow/capacity ratio ( m3/s/W ) = 6.041E-005
   **   ~~~   ** ...Adjusted capacity ( W ) = 8214.923
   ** Warning ** Coil:WaterHeating:AirToWaterHeatPump:Wrapped "HEAT PUMP WATER HEATER EVAPORATOR": Rated air volume flow rate per watt of rated total water heating capacity is out of range
   **   ~~~   ** Min Rated Vol Flow Per Watt=[4.027E-005], Rated Vol Flow Per Watt=[1.510E-004], Max Rated Vol Flow Per Watt=[8.056E-005]. See Input-Output Reference Manual for valid range.
   ************* SizeFan: : Potential issue with equipment sizing for Fan:OnOff HEAT PUMP WATER HEATER FAN
   **   ~~~   ** User-Specified Maximum Flow Rate [m3/s] = 0.22653
   **   ~~~   ** differs from Design Size Maximum Flow Rate [m3/s] = 7.55250E-002
   **   ~~~   ** This may, or may not, indicate mismatched component sizes.
   **   ~~~   ** Verify that the value entered is intended and is consistent with other components.
   ** Warning ** Water heater = WATER HEATER TANK:  Recovery Efficiency and Energy Factor could not be calculated during the test for standard ratings
   **   ~~~   ** Setpoint was never recovered and/or heater never turned on
   ** Warning ** Check input. Pump nominal power or motor efficiency is set to 0, for pump=MAINS PRESSURE
   ** Warning ** Output:Meter: invalid Key Name="ELECTRIC_RANGE:INTERIOREQUIPMENT:ELECTRICITY" - not found.
   ** Warning ** Output:Meter: invalid Key Name="ELECTRIC_DRYER:INTERIOREQUIPMENT:ELECTRICITY" - not found.
   ** Warning ** Output:Meter: invalid Key Name="HEATRECOVERY:ELECTRICITY" - not found.
   ** Warning ** Output:Meter: invalid Key Name="HEATING:NATURALGAS" - not found.
   ** Warning ** Output:Meter: invalid Key Name="WATERSYSTEMS:NATURALGAS" - not found.
   ** Warning ** Output:Meter: invalid Key Name="PROPANE:FACILITY" - not found.
   ** Warning ** Output:Meter: invalid Key Name="HEATING:PROPANE" - not found.
   ************* Testing Individual Branch Integrity
   ************* All Branches passed integrity testing
   ************* Testing Individual Supply Air Path Integrity
   ************* All Supply Air Paths passed integrity testing
   ************* Testing Individual Return Air Path Integrity
   ************* All Return Air Paths passed integrity testing
   ************* No node connection errors were found.
   ************* Beginning Simulation
   ** Warning ** AirflowNetwork::Solver::validate_distribution: Heat pump water heater is simulated along with an AirflowNetwork but is not included in the AirflowNetwork.
   ** Warning ** CalcEquipmentFlowRates: "TOTAL HOT WATER LOAD" - Target water temperature is greater than the hot water temperature by (0.35 C)
   **   ~~~   **  Environment=EXTREME_WINTER, at Simulation time=01/06 03:45 - 04:00
   **   ~~~   ** ...target water temperature     = 53.33 C
   **   ~~~   ** ...hot water temperature        = 52.98 C
   **   ~~~   ** ...Target water temperature should be less than or equal to the hot water temperature. Verify temperature setpoints and schedules.
   ** Warning ** SimHVAC: Maximum iterations (20) exceeded for all HVAC loops, at EXTREME_SUMMER, 08/01 05:23 - 05:30
   **   ~~~   ** The solution for one or more of the Air Loop HVAC systems did not appear to converge
   **   ~~~   ** Air System Named = CENTRAL SYSTEM did not converge for mass flow rate
   **   ~~~   ** Check values should be zero. Most Recent values listed first.
   **   ~~~   ** Demand-to-Supply interface mass flow rate check value iteration history trace: 8.820696E-002,8.820696E-002,8.820696E-002,8.820696E-002,8.820696E-002,8.820696E-002,8.820696E-002,8.820696E-002,8.820696E-002,8.820696E-002,
   **   ~~~   ** Supply-to-demand interface deck 1 mass flow rate check value iteration history trace: 8.820696E-002,8.820696E-002,8.820696E-002,8.820696E-002,8.820696E-002,8.820696E-002,8.820696E-002,8.820696E-002,8.820696E-002,8.820696E-002,
   **   ~~~   ** Air System Named = CENTRAL SYSTEM did not converge for energy
   **   ~~~   ** Check values should be zero. Most Recent values listed first.
   **   ~~~   ** Demand-to-Supply interface energy check value iteration history trace: 2075.100946,2075.100947,2075.100947,2075.100948,2075.100948,2075.100948,2075.100949,2075.100949,2075.100949,2075.100950,
   **   ~~~   ** Supply-to-demand interface deck 1 energy check value iteration history trace: 813.363680,813.363680,813.363680,813.363680,813.363680,813.363681,813.363681,813.363681,813.363681,813.363681,
   ** Warning ** SimHVAC: Maximum iterations (20) exceeded for all HVAC loops, at EXTREME_SUMMER, 08/02 06:45 - 07:00
   **   ~~~   ** The solution for one or more of the Air Loop HVAC systems did not appear to converge
   **   ~~~   ** Air System Named = CENTRAL SYSTEM did not converge for mass flow rate
   **   ~~~   ** Check values should be zero. Most Recent values listed first.
   **   ~~~   ** Demand-to-Supply interface mass flow rate check value iteration history trace: 0.116720,0.116720,0.116720,0.116720,0.116720,0.116720,0.116720,0.116720,0.116720,0.116720,
   **   ~~~   ** Supply-to-demand interface deck 1 mass flow rate check value iteration history trace: 0.116720,0.116720,0.116720,0.116720,0.116720,0.116720,0.116720,0.116720,0.116720,0.116720,
   **   ~~~   ** Air System Named = CENTRAL SYSTEM did not converge for energy
   **   ~~~   ** Check values should be zero. Most Recent values listed first.
   **   ~~~   ** Demand-to-Supply interface energy check value iteration history trace: 2783.830948,2783.830948,2783.830949,2783.830949,2783.830950,2783.830950,2783.830951,2783.830952,2783.830952,2783.830953,
   **   ~~~   ** Supply-to-demand interface deck 1 energy check value iteration history trace: 1104.580253,1104.580253,1104.580253,1104.580253,1104.580254,1104.580254,1104.580254,1104.580254,1104.580255,1104.580255,
   ** Warning ** SimHVAC: Maximum iterations (20) exceeded for all HVAC loops, at ANNUAL, 01/05 16:30 - 16:45
   **   ~~~   ** The solution for one or more of the Air Loop HVAC systems did not appear to converge
   **   ~~~   ** Air System Named = CENTRAL SYSTEM did not converge for mass flow rate
   **   ~~~   ** Check values should be zero. Most Recent values listed first.
   **   ~~~   ** Demand-to-Supply interface mass flow rate check value iteration history trace: 4.865313E-002,4.865313E-002,4.865313E-002,4.865313E-002,4.865313E-002,4.865313E-002,4.865313E-002,4.865313E-002,4.865313E-002,4.865313E-002,
   **   ~~~   ** Supply-to-demand interface deck 1 mass flow rate check value iteration history trace: 4.865313E-002,4.865313E-002,4.865313E-002,4.865313E-002,4.865313E-002,4.865313E-002,4.865313E-002,4.865313E-002,4.865313E-002,4.865313E-002,
   **   ~~~   ** Air System Named = CENTRAL SYSTEM did not converge for energy
   **   ~~~   ** Check values should be zero. Most Recent values listed first.
   **   ~~~   ** Demand-to-Supply interface energy check value iteration history trace: 962.361148,962.361148,962.361148,962.361148,962.361148,962.361148,962.361148,962.361148,962.361148,962.361148,
   **   ~~~   ** Supply-to-demand interface deck 1 energy check value iteration history trace: 1741.590510,1741.590510,1741.590509,1741.590509,1741.590509,1741.590509,1741.590509,1741.590509,1741.590509,1741.590509,
   ** Warning ** SimHVAC: Maximum iterations (20) exceeded for all HVAC loops, at ANNUAL, 01/14 10:04 - 10:06
   **   ~~~   ** The solution for one or more of the Air Loop HVAC systems did not appear to converge
   **   ~~~   ** Air System Named = CENTRAL SYSTEM did not converge for mass flow rate
   **   ~~~   ** Check values should be zero. Most Recent values listed first.
   **   ~~~   ** Demand-to-Supply interface mass flow rate check value iteration history trace: 6.842106E-002,6.842106E-002,6.842106E-002,6.842106E-002,6.842106E-002,6.842106E-002,6.842106E-002,6.842106E-002,6.842106E-002,6.842106E-002,
   **   ~~~   ** Supply-to-demand interface deck 1 mass flow rate check value iteration history trace: 6.842106E-002,6.842106E-002,6.842106E-002,6.842106E-002,6.842106E-002,6.842106E-002,6.842106E-002,6.842106E-002,6.842106E-002,6.842106E-002,
   **   ~~~   ** Air System Named = CENTRAL SYSTEM did not converge for energy
   **   ~~~   ** Check values should be zero. Most Recent values listed first.
   **   ~~~   ** Demand-to-Supply interface energy check value iteration history trace: 1355.918523,1355.918523,1355.918523,1355.918522,1355.918522,1355.918522,1355.918522,1355.918522,1355.918522,1355.918522,
   **   ~~~   ** Supply-to-demand interface deck 1 energy check value iteration history trace: 2278.881387,2278.881387,2278.881387,2278.881387,2278.881386,2278.881386,2278.881386,2278.881386,2278.881386,2278.881386,
   ** Warning ** Temperature out of range [-100. to 200.] (PsyPsatFnTemp)
   **   ~~~   **  Routine=PsyTwbFnTdbWPb, Environment=ANNUAL, at Simulation time=01/23 17:48 - 17:51
   **   ~~~   **  Input Temperature=-196.57
   ** Warning ** SimHVAC: Maximum iterations (20) exceeded for all HVAC loops, at ANNUAL, 01/25 10:15 - 10:17
   **   ~~~   ** The solution for one or more of the Air Loop HVAC systems did not appear to converge
   **   ~~~   ** Air System Named = CENTRAL SYSTEM did not converge for mass flow rate
   **   ~~~   ** Check values should be zero. Most Recent values listed first.
   **   ~~~   ** Demand-to-Supply interface mass flow rate check value iteration history trace: 4.879515E-002,4.879515E-002,4.879515E-002,4.879515E-002,4.879515E-002,4.879515E-002,4.879515E-002,4.879515E-002,4.879515E-002,4.879515E-002,
   **   ~~~   ** Supply-to-demand interface deck 1 mass flow rate check value iteration history trace: 4.879515E-002,4.879515E-002,4.879515E-002,4.879515E-002,4.879515E-002,4.879515E-002,4.879515E-002,4.879515E-002,4.879515E-002,4.879515E-002,
   **   ~~~   ** Air System Named = CENTRAL SYSTEM did not converge for energy
   **   ~~~   ** Check values should be zero. Most Recent values listed first.
   **   ~~~   ** Demand-to-Supply interface energy check value iteration history trace: 964.979950,964.979950,964.979950,964.979950,964.979950,964.979950,964.979950,964.979950,964.979950,964.979950,
   **   ~~~   ** Supply-to-demand interface deck 1 energy check value iteration history trace: 1729.436636,1729.436636,1729.436636,1729.436636,1729.436636,1729.436635,1729.436635,1729.436635,1729.436635,1729.436635,
   ** Warning ** SimHVAC: Maximum iterations (20) exceeded for all HVAC loops, at ANNUAL, 02/11 10:25 - 10:27
   **   ~~~   ** The solution for one or more of the Air Loop HVAC systems did not appear to converge
   **   ~~~   ** Air System Named = CENTRAL SYSTEM did not converge for mass flow rate
   **   ~~~   ** Check values should be zero. Most Recent values listed first.
   **   ~~~   ** Demand-to-Supply interface mass flow rate check value iteration history trace: 4.875026E-002,4.875026E-002,4.875026E-002,4.875026E-002,4.875026E-002,4.875026E-002,4.875026E-002,4.875026E-002,4.875026E-002,4.875026E-002,
   **   ~~~   ** Supply-to-demand interface deck 1 mass flow rate check value iteration history trace: 4.875026E-002,4.875026E-002,4.875026E-002,4.875026E-002,4.875026E-002,4.875026E-002,4.875026E-002,4.875026E-002,4.875026E-002,4.875026E-002,
   **   ~~~   ** Air System Named = CENTRAL SYSTEM did not converge for energy
   **   ~~~   ** Check values should be zero. Most Recent values listed first.
   **   ~~~   ** Demand-to-Supply interface energy check value iteration history trace: 963.283108,963.283108,963.283108,963.283108,963.283108,963.283108,963.283108,963.283108,963.283108,963.283108,
   **   ~~~   ** Supply-to-demand interface deck 1 energy check value iteration history trace: 1865.589564,1865.589564,1865.589563,1865.589563,1865.589563,1865.589563,1865.589563,1865.589563,1865.589563,1865.589563,
   ** Warning ** SimHVAC: Maximum iterations (20) exceeded for all HVAC loops, at ANNUAL, 03/15 08:18 - 08:21
   **   ~~~   ** The solution for one or more of the Air Loop HVAC systems did not appear to converge
   **   ~~~   ** Air System Named = CENTRAL SYSTEM did not converge for mass flow rate
   **   ~~~   ** Check values should be zero. Most Recent values listed first.
   **   ~~~   ** Demand-to-Supply interface mass flow rate check value iteration history trace: 5.841231E-002,5.841231E-002,5.841231E-002,5.841231E-002,5.841231E-002,5.841231E-002,5.841231E-002,5.841231E-002,5.841231E-002,5.841231E-002,
   **   ~~~   ** Supply-to-demand interface deck 1 mass flow rate check value iteration history trace: 5.841231E-002,5.841231E-002,5.841231E-002,5.841231E-002,5.841231E-002,5.841231E-002,5.841231E-002,5.841231E-002,5.841231E-002,5.841231E-002,
   **   ~~~   ** Air System Named = CENTRAL SYSTEM did not converge for energy
   **   ~~~   ** Check values should be zero. Most Recent values listed first.
   **   ~~~   ** Demand-to-Supply interface energy check value iteration history trace: 1155.032192,1155.032192,1155.032192,1155.032192,1155.032192,1155.032192,1155.032192,1155.032192,1155.032192,1155.032192,
   **   ~~~   ** Supply-to-demand interface deck 1 energy check value iteration history trace: 2166.088738,2166.088738,2166.088738,2166.088738,2166.088738,2166.088738,2166.088738,2166.088738,2166.088738,2166.088738,
   ** Warning ** SimHVAC: Maximum iterations (20) exceeded for all HVAC loops, at ANNUAL, 04/02 08:39 - 08:41
   **   ~~~   ** The solution for one or more of the Air Loop HVAC systems did not appear to converge
   **   ~~~   ** Air System Named = CENTRAL SYSTEM did not converge for mass flow rate
   **   ~~~   ** Check values should be zero. Most Recent values listed first.
   **   ~~~   ** Demand-to-Supply interface mass flow rate check value iteration history trace: 4.525221E-002,4.525221E-002,4.525221E-002,4.525221E-002,4.525221E-002,4.525221E-002,4.525221E-002,4.525221E-002,4.525221E-002,4.525221E-002,
   **   ~~~   ** Supply-to-demand interface deck 1 mass flow rate check value iteration history trace: 4.525221E-002,4.525221E-002,4.525221E-002,4.525221E-002,4.525221E-002,4.525221E-002,4.525221E-002,4.525221E-002,4.525221E-002,4.525221E-002,
   **   ~~~   ** Air System Named = CENTRAL SYSTEM did not converge for energy
   **   ~~~   ** Check values should be zero. Most Recent values listed first.
   **   ~~~   ** Demand-to-Supply interface energy check value iteration history trace: 893.760918,893.760918,893.760918,893.760918,893.760918,893.760918,893.760918,893.760918,893.760918,893.760918,
   **   ~~~   ** Supply-to-demand interface deck 1 energy check value iteration history trace: 1620.330312,1620.330312,1620.330312,1620.330312,1620.330312,1620.330312,1620.330312,1620.330311,1620.330311,1620.330311,
   ** Warning ** SimHVAC: Maximum iterations (20) exceeded for all HVAC loops, at ANNUAL, 04/06 08:56 - 09:00
   **   ~~~   ** The solution for one or more of the Air Loop HVAC systems did not appear to converge
   **   ~~~   ** Air System Named = CENTRAL SYSTEM did not converge for mass flow rate
   **   ~~~   ** Check values should be zero. Most Recent values listed first.
   **   ~~~   ** Demand-to-Supply interface mass flow rate check value iteration history trace: 4.704556E-002,4.704556E-002,4.704556E-002,4.704556E-002,4.704556E-002,4.704556E-002,4.704556E-002,4.704556E-002,4.704556E-002,4.704556E-002,
   **   ~~~   ** Supply-to-demand interface deck 1 mass flow rate check value iteration history trace: 4.704556E-002,4.704556E-002,4.704556E-002,4.704556E-002,4.704556E-002,4.704556E-002,4.704556E-002,4.704556E-002,4.704556E-002,4.704556E-002,
   **   ~~~   ** Air System Named = CENTRAL SYSTEM did not converge for energy
   **   ~~~   ** Check values should be zero. Most Recent values listed first.
   **   ~~~   ** Demand-to-Supply interface energy check value iteration history trace: 930.775387,930.775387,930.775387,930.775387,930.775387,930.775387,930.775387,930.775387,930.775387,930.775387,
   **   ~~~   ** Supply-to-demand interface deck 1 energy check value iteration history trace: 1746.153207,1746.153207,1746.153207,1746.153207,1746.153206,1746.153206,1746.153206,1746.153206,1746.153206,1746.153206,
   ** Warning ** WetBulb not converged after 101 iterations(PsyTwbFnTdbWPb)
   **   ~~~   **  Routine=Unknown, Environment=ANNUAL, at Simulation time=04/15 21:40 - 21:45
   **   ~~~   **  Input Temperature = 5.67
   **   ~~~   **  Input Humidity Ratio= 2.249659E-003
   **   ~~~   **  Input Pressure = 84211.50
   **   ~~~   **  Resultant Temperature= 2.36E-002
   ** Warning ** SimHVAC: Maximum iterations (20) exceeded for all HVAC loops, at ANNUAL, 05/05 10:30 - 10:45
   **   ~~~   ** The solution for one or more of the Air Loop HVAC systems did not appear to converge
   **   ~~~   ** Air System Named = CENTRAL SYSTEM did not converge for mass flow rate
   **   ~~~   ** Check values should be zero. Most Recent values listed first.
   **   ~~~   ** Demand-to-Supply interface mass flow rate check value iteration history trace: 6.053510E-002,6.053510E-002,6.053510E-002,6.053510E-002,6.053510E-002,6.053510E-002,6.053510E-002,6.053510E-002,6.053510E-002,6.053510E-002,
   **   ~~~   ** Supply-to-demand interface deck 1 mass flow rate check value iteration history trace: 6.053510E-002,6.053510E-002,6.053510E-002,6.053510E-002,6.053510E-002,6.053510E-002,6.053510E-002,6.053510E-002,6.053510E-002,6.053510E-002,
   **   ~~~   ** Air System Named = CENTRAL SYSTEM did not converge for energy
   **   ~~~   ** Check values should be zero. Most Recent values listed first.
   **   ~~~   ** Demand-to-Supply interface energy check value iteration history trace: 1418.487162,1418.487162,1418.487162,1418.487162,1418.487163,1418.487163,1418.487163,1418.487163,1418.487163,1418.487163,
   **   ~~~   ** Supply-to-demand interface deck 1 energy check value iteration history trace: 388.226580,388.226580,388.226580,388.226580,388.226580,388.226580,388.226580,388.226580,388.226580,388.226580,
   ** Warning ** SimHVAC: Maximum iterations (20) exceeded for all HVAC loops, at ANNUAL, 05/12 08:33 - 08:35
   **   ~~~   ** The solution for one or more of the Air Loop HVAC systems did not appear to converge
   **   ~~~   ** Air System Named = CENTRAL SYSTEM did not converge for mass flow rate
   **   ~~~   ** Check values should be zero. Most Recent values listed first.
   **   ~~~   ** Demand-to-Supply interface mass flow rate check value iteration history trace: 0.181165,0.181165,0.181165,0.181165,0.181165,0.181165,0.181165,0.181165,0.181165,0.181165,
   **   ~~~   ** Supply-to-demand interface deck 1 mass flow rate check value iteration history trace: 0.181165,0.181165,0.181165,0.181165,0.181165,0.181165,0.181165,0.181165,0.181165,0.181165,
   **   ~~~   ** Air System Named = CENTRAL SYSTEM did not converge for energy
   **   ~~~   ** Check values should be zero. Most Recent values listed first.
   **   ~~~   ** Demand-to-Supply interface energy check value iteration history trace: 4290.830955,4290.830955,4290.830956,4290.830956,4290.830957,4290.830957,4290.830958,4290.830958,4290.830959,4290.830959,
   **   ~~~   ** Supply-to-demand interface deck 1 energy check value iteration history trace: 1276.084866,1276.084866,1276.084867,1276.084867,1276.084867,1276.084867,1276.084867,1276.084867,1276.084867,1276.084868,
   ** Warning ** SimHVAC: Maximum iterations (20) exceeded for all HVAC loops, at ANNUAL, 05/12 09:08 - 09:09
   **   ~~~   ** The solution for one or more of the Air Loop HVAC systems did not appear to converge
   **   ~~~   ** Air System Named = CENTRAL SYSTEM did not converge for mass flow rate
   **   ~~~   ** Check values should be zero. Most Recent values listed first.
   **   ~~~   ** Demand-to-Supply interface mass flow rate check value iteration history trace: 0.158253,0.158253,0.158253,0.158253,0.158253,0.158253,0.158253,0.158253,0.158253,0.158253,
   **   ~~~   ** Supply-to-demand interface deck 1 mass flow rate check value iteration history trace: 0.158253,0.158253,0.158253,0.158253,0.158253,0.158253,0.158253,0.158253,0.158253,0.158253,
   **   ~~~   ** Air System Named = CENTRAL SYSTEM did not converge for energy
   **   ~~~   ** Check values should be zero. Most Recent values listed first.
   **   ~~~   ** Demand-to-Supply interface energy check value iteration history trace: 3746.701995,3746.701996,3746.701996,3746.701997,3746.701997,3746.701997,3746.701998,3746.701998,3746.701999,3746.701999,
   **   ~~~   ** Supply-to-demand interface deck 1 energy check value iteration history trace: 1137.148276,1137.148276,1137.148276,1137.148276,1137.148276,1137.148276,1137.148276,1137.148276,1137.148277,1137.148277,
   ** Warning ** SimHVAC: Maximum iterations (20) exceeded for all HVAC loops, at ANNUAL, 10/29 04:23 - 04:30
   **   ~~~   ** The solution for one or more of the Air Loop HVAC systems did not appear to converge
   **   ~~~   ** Air System Named = CENTRAL SYSTEM did not converge for mass flow rate
   **   ~~~   ** Check values should be zero. Most Recent values listed first.
   **   ~~~   ** Demand-to-Supply interface mass flow rate check value iteration history trace: 5.182887E-002,5.182887E-002,5.182887E-002,5.182887E-002,5.182887E-002,5.182887E-002,5.182887E-002,5.182887E-002,5.182887E-002,5.182887E-002,
   **   ~~~   ** Supply-to-demand interface deck 1 mass flow rate check value iteration history trace: 5.182887E-002,5.182887E-002,5.182887E-002,5.182887E-002,5.182887E-002,5.182887E-002,5.182887E-002,5.182887E-002,5.182887E-002,5.182887E-002,
   **   ~~~   ** Air System Named = CENTRAL SYSTEM did not converge for energy
   **   ~~~   ** Check values should be zero. Most Recent values listed first.
   **   ~~~   ** Demand-to-Supply interface energy check value iteration history trace: 964.022413,964.022413,964.022413,964.022413,964.022413,964.022413,964.022413,964.022413,964.022413,964.022413,
   **   ~~~   ** Supply-to-demand interface deck 1 energy check value iteration history trace: 1651.187465,1651.187465,1651.187465,1651.187465,1651.187465,1651.187465,1651.187465,1651.187465,1651.187465,1651.187465,
   ** Warning ** SimHVAC: Maximum iterations (20) exceeded for all HVAC loops, at ANNUAL, 11/23 03:15 - 03:20
   **   ~~~   ** The solution for one or more of the Air Loop HVAC systems did not appear to converge
   **   ~~~   ** Air System Named = CENTRAL SYSTEM did not converge for mass flow rate
   **   ~~~   ** Check values should be zero. Most Recent values listed first.
   **   ~~~   ** Demand-to-Supply interface mass flow rate check value iteration history trace: 5.940632E-002,5.940632E-002,5.940632E-002,5.940632E-002,5.940632E-002,5.940632E-002,5.940632E-002,5.940632E-002,5.940632E-002,5.940632E-002,
   **   ~~~   ** Supply-to-demand interface deck 1 mass flow rate check value iteration history trace: 5.940632E-002,5.940632E-002,5.940632E-002,5.940632E-002,5.940632E-002,5.940632E-002,5.940632E-002,5.940632E-002,5.940632E-002,5.940632E-002,
   **   ~~~   ** Air System Named = CENTRAL SYSTEM did not converge for energy
   **   ~~~   ** Check values should be zero. Most Recent values listed first.
   **   ~~~   ** Demand-to-Supply interface energy check value iteration history trace: 1134.737302,1134.737302,1134.737302,1134.737302,1134.737302,1134.737302,1134.737302,1134.737302,1134.737302,1134.737302,
   **   ~~~   ** Supply-to-demand interface deck 1 energy check value iteration history trace: 1874.183924,1874.183924,1874.183924,1874.183923,1874.183923,1874.183923,1874.183923,1874.183923,1874.183923,1874.183923,
   ************* Simulation Error Summary *************
   ** Warning ** The following Report Variables were requested but not generated -- check.rdd file
   **   ~~~   ** Either the IDF did not contain these elements, the variable name is misspelled,
   **   ~~~   ** or the requested variable is an advanced output which requires Output : Diagnostics, DisplayAdvancedReportVariables;
   ************* Key=*, VarName=BASEBOARD TOTAL HEATING ENERGY, Frequency=
   ************* Key=*, VarName=WATER HEATER NATURALGAS ENERGY, Frequency=
   ************* Key=*, VarName=COOLING COIL TOTAL HEATING ENERGY, Frequency=
   ************* There are 34 unused schedules in input.
   ************* There are 388 unused week schedules in input.
   ************* There are 396 unused day schedules in input.
   ************* Use Output:Diagnostics,DisplayUnusedSchedules; to see them.
   *************
   ************* ===== Recurring Error Summary =====
   ************* The following recurring error messages occurred.
   *************
   *************  ** Warning ** "TOTAL HOT WATER LOAD" - Target water temperature should be less than or equal to the hot water temperature error continues...
   *************  **   ~~~   **   This error occurred 77343 total times;
   *************  **   ~~~   **   during Warmup 0 times;
   *************  **   ~~~   **   during Sizing 0 times.
   *************  **   ~~~   **   Max=6.048051  Min=5.577377E-004
   *************
   *************  ** Warning ** Temperature out of range [-100. to 200.] (PsyPsatFnTemp)
   *************  **   ~~~   **   This error occurred 16 total times;
   *************  **   ~~~   **   during Warmup 0 times;
   *************  **   ~~~   **   during Sizing 0 times.
   *************  **   ~~~   **   Max=-101.000431 C  Min=-232.287086 C
   *************
   *************  ** Warning ** WetBulb not converged after max iterations(PsyTwbFnTdbWPb)
   *************  **   ~~~   **   This error occurred 6 total times;
   *************  **   ~~~   **   during Warmup 0 times;
   *************  **   ~~~   **   during Sizing 0 times.
   *************
   *************  ** Warning ** SimHVAC: Exceeding Maximum iterations for all HVAC loops, during ANNUAL continues
   *************  **   ~~~   **   This error occurred 1 total times;
   *************  **   ~~~   **   during Warmup 0 times;
   *************  **   ~~~   **   during Sizing 0 times.
   *************
   *************
   ************* ===== Final Error Summary =====
   ************* The following error categories occurred.  Consider correcting or noting.
   ************* Nominally Unused Constructions
   ************* ..The nominally unused constructions warning is provided to alert you to potential conditions that can cause
   ************* ..extra time during simulation. Each construction is calculated by the algorithm indicated in the HeatBalanceAlgorithm
   ************* ..object. You may remove the constructions indicated (when you use the DisplayExtraWarnings option).
   *************
   ************* EnergyPlus Warmup Error Summary. During Warmup: 1 Warning; 0 Severe Errors.
   ************* EnergyPlus Sizing Error Summary. During Sizing: 4 Warning; 0 Severe Errors.
   ************* EnergyPlus Completed Successfully-- 77399 Warning; 0 Severe Errors; Elapsed Time=00hr 01min 57.53sec
