Program Version,EnergyPlus, Version 22.2.0-c249759bad, YMD=2023.09.01 19:41,
   ************* Beginning Zone Sizing Calculations
   ** Warning ** ProcessScheduleInput: Schedule:Constant="ALWAYS ON DISCRETE", Schedule Type Limits Name="ONOFF" not found -- will not be validated
   ** Warning ** Foundation:Kiva="KIVA FOUNDATION", no Interior Horizontal Insulation Material Name defined
   **   ~~~   ** Interior Horizontal Insulation Depth will not be used.
   ** Warning ** CheckUsedConstructions: There are 15 nominally unused constructions in input.
   **   ~~~   ** Each Unused construction is shown.
   ************* Construction=INTERIOR FLOOR
   ************* Construction=INTERIOR WINDOW
   ************* Construction=EXTERIOR DOOR
   ************* Construction=INTERIOR DOOR
   ************* Construction=GABLE CONSTRUCTION
   ************* Construction=CRAWL_FLOOR
   ************* Construction=INSULATED PIPE
   ************* Construction=PLAIN PIPE
   ************* Construction=TDD PIPE
   ************* Construction=TDD DOME
   ************* Construction=TDD DIFFUSER
   ************* Construction=CRAWL WALL
   ************* Construction=CEILING-FLOOR-LAYER
   ************* Construction=SLAB CONSTRUCTION W FULL R10 INSULATION
   ************* Construction=SLAB CONSTRUCTION W FULL R5 INSULATION
   ** Warning ** GetDXCoils: Coil:Heating:DX:SingleSpeed="DX_HEATING_COIL" curve values
   **   ~~~   ** ... Defrost Energy Input Ratio Function of Temperature Curve Name = DEFROSTEIR output is not equal to 1.0 (+ or - 10%) at rated conditions.
   **   ~~~   ** ... Curve output at rated conditions = 0.152
   ************* Beginning System Sizing Calculations
   ************* Beginning Plant Sizing Calculations
   ** Warning ** SizeDXCoil Coil:Cooling:DX:SingleSpeed DX_COOLING_COIL
   **   ~~~   ** ...Gross Rated Total Cooling Capacity [W] will be limited by the maximum rated volume flow per rated total capacity ratio.
   **   ~~~   ** ...DX coil volume flow rate ( m3/s ) = 0.515014
   **   ~~~   ** ...Requested capacity ( W ) = 6756.058
   **   ~~~   ** ...Requested flow/capacity ratio ( m3/s/W ) = 7.623E-005
   **   ~~~   ** ...Maximum flow/capacity ratio ( m3/s/W ) = 6.041E-005
   **   ~~~   ** ...Adjusted capacity ( W ) = 8525.325
   ** Warning ** SizeDXCoil Coil:Heating:DX:SingleSpeed DX_HEATING_COIL
   **   ~~~   ** ...Gross Rated Heating Capacity [W] will be limited by the maximum rated volume flow per rated total capacity ratio.
   **   ~~~   ** ...DX coil volume flow rate ( m3/s ) = 0.515014
   **   ~~~   ** ...Requested capacity ( W ) = 8525.325
   **   ~~~   ** ...Requested flow/capacity ratio ( m3/s/W ) = 6.041E-005
   **   ~~~   ** ...Maximum flow/capacity ratio ( m3/s/W ) = 6.041E-005
   **   ~~~   ** ...Adjusted capacity ( W ) = 8525.325
   ** Warning ** Coil:WaterHeating:AirToWaterHeatPump:Wrapped "HEAT PUMP WATER HEATER EVAPORATOR": Rated air volume flow rate per watt of rated total water heating capacity is out of range
   **   ~~~   ** Min Rated Vol Flow Per Watt=[4.027E-005], Rated Vol Flow Per Watt=[1.510E-004], Max Rated Vol Flow Per Watt=[8.056E-005]. See Input-Output Reference Manual for valid range.
   ************* SizeFan: : Potential issue with equipment sizing for Fan:OnOff HEAT PUMP WATER HEATER FAN
   **   ~~~   ** User-Specified Maximum Flow Rate [m3/s] = 0.22653
   **   ~~~   ** differs from Design Size Maximum Flow Rate [m3/s] = 7.55250E-002
   **   ~~~   ** This may, or may not, indicate mismatched component sizes.
   **   ~~~   ** Verify that the value entered is intended and is consistent with other components.
   ** Warning ** Water heater = WATER HEATER TANK:  Recovery Efficiency and Energy Factor could not be calculated during the test for standard ratings
   **   ~~~   ** Setpoint was never recovered and/or heater never turned on
   ** Warning ** Check input. Pump nominal power or motor efficiency is set to 0, for pump=MAINS PRESSURE
   ** Warning ** Output:Meter: invalid Key Name="ELECTRIC_RANGE:INTERIOREQUIPMENT:ELECTRICITY" - not found.
   ** Warning ** Output:Meter: invalid Key Name="ELECTRIC_DRYER:INTERIOREQUIPMENT:ELECTRICITY" - not found.
   ** Warning ** Output:Meter: invalid Key Name="HEATRECOVERY:ELECTRICITY" - not found.
   ** Warning ** Output:Meter: invalid Key Name="HEATING:NATURALGAS" - not found.
   ** Warning ** Output:Meter: invalid Key Name="WATERSYSTEMS:NATURALGAS" - not found.
   ** Warning ** Output:Meter: invalid Key Name="PROPANE:FACILITY" - not found.
   ** Warning ** Output:Meter: invalid Key Name="HEATING:PROPANE" - not found.
   ************* Testing Individual Branch Integrity
   ************* All Branches passed integrity testing
   ************* Testing Individual Supply Air Path Integrity
   ************* All Supply Air Paths passed integrity testing
   ************* Testing Individual Return Air Path Integrity
   ************* All Return Air Paths passed integrity testing
   ************* No node connection errors were found.
   ************* Beginning Simulation
   ** Warning ** AirflowNetwork::Solver::validate_distribution: Heat pump water heater is simulated along with an AirflowNetwork but is not included in the AirflowNetwork.
   ** Warning ** CalcEquipmentFlowRates: "TOTAL HOT WATER LOAD" - Target water temperature is greater than the hot water temperature by (6.10 C)
   **   ~~~   **  Environment=EXTREME_WINTER, at Simulation time=01/06 06:00 - 06:15
   **   ~~~   ** ...target water temperature     = 53.33 C
   **   ~~~   ** ...hot water temperature        = 47.23 C
   **   ~~~   ** ...Target water temperature should be less than or equal to the hot water temperature. Verify temperature setpoints and schedules.
   ** Warning ** SimHVAC: Maximum iterations (20) exceeded for all HVAC loops, at ANNUAL, 01/01 11:19 - 11:21
   **   ~~~   ** The solution for one or more of the Air Loop HVAC systems did not appear to converge
   **   ~~~   ** Air System Named = CENTRAL SYSTEM did not converge for mass flow rate
   **   ~~~   ** Check values should be zero. Most Recent values listed first.
   **   ~~~   ** Demand-to-Supply interface mass flow rate check value iteration history trace: 7.369845E-002,7.369845E-002,7.369845E-002,7.369845E-002,7.369845E-002,7.369845E-002,7.369845E-002,7.369845E-002,7.369845E-002,7.369845E-002,
   **   ~~~   ** Supply-to-demand interface deck 1 mass flow rate check value iteration history trace: 7.369845E-002,7.369845E-002,7.369845E-002,7.369845E-002,7.369845E-002,7.369845E-002,7.369845E-002,7.369845E-002,7.369845E-002,7.369845E-002,
   **   ~~~   ** Air System Named = CENTRAL SYSTEM did not converge for energy
   **   ~~~   ** Check values should be zero. Most Recent values listed first.
   **   ~~~   ** Demand-to-Supply interface energy check value iteration history trace: 1454.624995,1454.624995,1454.624995,1454.624995,1454.624995,1454.624995,1454.624995,1454.624995,1454.624995,1454.624995,
   **   ~~~   ** Supply-to-demand interface deck 1 energy check value iteration history trace: 2441.603759,2441.603759,2441.603759,2441.603759,2441.603759,2441.603759,2441.603758,2441.603758,2441.603758,2441.603758,
   ** Warning ** SimHVAC: Maximum iterations (20) exceeded for all HVAC loops, at ANNUAL, 01/09 11:02 - 11:04
   **   ~~~   ** The solution for one or more of the Air Loop HVAC systems did not appear to converge
   **   ~~~   ** Air System Named = CENTRAL SYSTEM did not converge for mass flow rate
   **   ~~~   ** Check values should be zero. Most Recent values listed first.
   **   ~~~   ** Demand-to-Supply interface mass flow rate check value iteration history trace: 7.250696E-002,7.250696E-002,7.250696E-002,7.250696E-002,7.250696E-002,7.250696E-002,7.250696E-002,7.250696E-002,7.250696E-002,7.250696E-002,
   **   ~~~   ** Supply-to-demand interface deck 1 mass flow rate check value iteration history trace: 7.250696E-002,7.250696E-002,7.250696E-002,7.250696E-002,7.250696E-002,7.250696E-002,7.250696E-002,7.250696E-002,7.250696E-002,7.250696E-002,
   **   ~~~   ** Air System Named = CENTRAL SYSTEM did not converge for energy
   **   ~~~   ** Check values should be zero. Most Recent values listed first.
   **   ~~~   ** Demand-to-Supply interface energy check value iteration history trace: 1432.536270,1432.536270,1432.536270,1432.536270,1432.536270,1432.536270,1432.536270,1432.536270,1432.536270,1432.536270,
   **   ~~~   ** Supply-to-demand interface deck 1 energy check value iteration history trace: 2259.179818,2259.179818,2259.179818,2259.179817,2259.179817,2259.179817,2259.179817,2259.179817,2259.179817,2259.179817,
   ** Warning ** SimHVAC: Maximum iterations (20) exceeded for all HVAC loops, at ANNUAL, 01/15 17:53 - 18:00
   **   ~~~   ** The solution for one or more of the Air Loop HVAC systems did not appear to converge
   **   ~~~   ** Air System Named = CENTRAL SYSTEM did not converge for mass flow rate
   **   ~~~   ** Check values should be zero. Most Recent values listed first.
   **   ~~~   ** Demand-to-Supply interface mass flow rate check value iteration history trace: 7.769264E-002,7.769264E-002,7.769264E-002,7.769264E-002,7.769264E-002,7.769264E-002,7.769264E-002,7.769264E-002,7.769264E-002,7.769264E-002,
   **   ~~~   ** Supply-to-demand interface deck 1 mass flow rate check value iteration history trace: 7.769264E-002,7.769264E-002,7.769264E-002,7.769264E-002,7.769264E-002,7.769264E-002,7.769264E-002,7.769264E-002,7.769264E-002,7.769264E-002,
   **   ~~~   ** Air System Named = CENTRAL SYSTEM did not converge for energy
   **   ~~~   ** Check values should be zero. Most Recent values listed first.
   **   ~~~   ** Demand-to-Supply interface energy check value iteration history trace: 1540.771956,1540.771956,1540.771956,1540.771956,1540.771956,1540.771956,1540.771956,1540.771956,1540.771956,1540.771956,
   **   ~~~   ** Supply-to-demand interface deck 1 energy check value iteration history trace: 2522.027205,2522.027205,2522.027205,2522.027205,2522.027205,2522.027205,2522.027205,2522.027205,2522.027205,2522.027204,
   ** Warning ** SimHVAC: Maximum iterations (20) exceeded for all HVAC loops, at ANNUAL, 01/25 10:04 - 10:06
   **   ~~~   ** The solution for one or more of the Air Loop HVAC systems did not appear to converge
   **   ~~~   ** Air System Named = CENTRAL SYSTEM did not converge for mass flow rate
   **   ~~~   ** Check values should be zero. Most Recent values listed first.
   **   ~~~   ** Demand-to-Supply interface mass flow rate check value iteration history trace: 5.964207E-002,5.964207E-002,5.964207E-002,5.964207E-002,5.964207E-002,5.964207E-002,5.964207E-002,5.964207E-002,5.964207E-002,5.964207E-002,
   **   ~~~   ** Supply-to-demand interface deck 1 mass flow rate check value iteration history trace: 5.964207E-002,5.964207E-002,5.964207E-002,5.964207E-002,5.964207E-002,5.964207E-002,5.964207E-002,5.964207E-002,5.964207E-002,5.964207E-002,
   **   ~~~   ** Air System Named = CENTRAL SYSTEM did not converge for energy
   **   ~~~   ** Check values should be zero. Most Recent values listed first.
   **   ~~~   ** Demand-to-Supply interface energy check value iteration history trace: 1180.013813,1180.013813,1180.013813,1180.013813,1180.013813,1180.013813,1180.013813,1180.013813,1180.013813,1180.013813,
   **   ~~~   ** Supply-to-demand interface deck 1 energy check value iteration history trace: 1982.065784,1982.065784,1982.065784,1982.065784,1982.065784,1982.065784,1982.065784,1982.065784,1982.065784,1982.065784,
   ** Warning ** SimHVAC: Maximum iterations (20) exceeded for all HVAC loops, at ANNUAL, 01/25 10:17 - 10:20
   **   ~~~   ** The solution for one or more of the Air Loop HVAC systems did not appear to converge
   **   ~~~   ** Air System Named = CENTRAL SYSTEM did not converge for mass flow rate
   **   ~~~   ** Check values should be zero. Most Recent values listed first.
   **   ~~~   ** Demand-to-Supply interface mass flow rate check value iteration history trace: 4.981884E-002,4.981884E-002,4.981884E-002,4.981884E-002,4.981884E-002,4.981884E-002,4.981884E-002,4.981884E-002,4.981884E-002,4.981884E-002,
   **   ~~~   ** Supply-to-demand interface deck 1 mass flow rate check value iteration history trace: 4.981884E-002,4.981884E-002,4.981884E-002,4.981884E-002,4.981884E-002,4.981884E-002,4.981884E-002,4.981884E-002,4.981884E-002,4.981884E-002,
   **   ~~~   ** Air System Named = CENTRAL SYSTEM did not converge for energy
   **   ~~~   ** Check values should be zero. Most Recent values listed first.
   **   ~~~   ** Demand-to-Supply interface energy check value iteration history trace: 984.076068,984.076068,984.076068,984.076068,984.076068,984.076068,984.076068,984.076068,984.076068,984.076068,
   **   ~~~   ** Supply-to-demand interface deck 1 energy check value iteration history trace: 1763.208071,1763.208071,1763.208071,1763.208071,1763.208071,1763.208071,1763.208071,1763.208071,1763.208071,1763.208070,
   ** Warning ** Temperature out of range [-100. to 200.] (PsyPsatFnTemp)
   **   ~~~   **  Routine=PsyTwbFnTdbWPb, Environment=ANNUAL, at Simulation time=02/12 05:45 - 06:00
   **   ~~~   **  Input Temperature=-232.28
   ** Warning ** SimHVAC: Maximum iterations (20) exceeded for all HVAC loops, at ANNUAL, 02/12 10:40 - 10:42
   **   ~~~   ** The solution for one or more of the Air Loop HVAC systems did not appear to converge
   **   ~~~   ** Air System Named = CENTRAL SYSTEM did not converge for mass flow rate
   **   ~~~   ** Check values should be zero. Most Recent values listed first.
   **   ~~~   ** Demand-to-Supply interface mass flow rate check value iteration history trace: 6.057882E-002,6.057882E-002,6.057882E-002,6.057882E-002,6.057882E-002,6.057882E-002,6.057882E-002,6.057882E-002,6.057882E-002,6.057882E-002,
   **   ~~~   ** Supply-to-demand interface deck 1 mass flow rate check value iteration history trace: 6.057882E-002,6.057882E-002,6.057882E-002,6.057882E-002,6.057882E-002,6.057882E-002,6.057882E-002,6.057882E-002,6.057882E-002,6.057882E-002,
   **   ~~~   ** Air System Named = CENTRAL SYSTEM did not converge for energy
   **   ~~~   ** Check values should be zero. Most Recent values listed first.
   **   ~~~   ** Demand-to-Supply interface energy check value iteration history trace: 1191.657827,1191.657827,1191.657827,1191.657827,1191.657826,1191.657826,1191.657826,1191.657826,1191.657826,1191.657826,
   **   ~~~   ** Supply-to-demand interface deck 1 energy check value iteration history trace: 2229.768747,2229.768747,2229.768747,2229.768746,2229.768746,2229.768746,2229.768746,2229.768746,2229.768746,2229.768746,
   ** Warning ** SimHVAC: Maximum iterations (20) exceeded for all HVAC loops, at ANNUAL, 02/14 18:35 - 18:40
   **   ~~~   ** The solution for one or more of the Air Loop HVAC systems did not appear to converge
   **   ~~~   ** Air System Named = CENTRAL SYSTEM did not converge for mass flow rate
   **   ~~~   ** Check values should be zero. Most Recent values listed first.
   **   ~~~   ** Demand-to-Supply interface mass flow rate check value iteration history trace: 8.692299E-002,8.692299E-002,8.692299E-002,8.692299E-002,8.692299E-002,8.692299E-002,8.692299E-002,8.692299E-002,8.692299E-002,8.692299E-002,
   **   ~~~   ** Supply-to-demand interface deck 1 mass flow rate check value iteration history trace: 8.692299E-002,8.692299E-002,8.692299E-002,8.692299E-002,8.692299E-002,8.692299E-002,8.692299E-002,8.692299E-002,8.692299E-002,8.692299E-002,
   **   ~~~   ** Air System Named = CENTRAL SYSTEM did not converge for energy
   **   ~~~   ** Check values should be zero. Most Recent values listed first.
   **   ~~~   ** Demand-to-Supply interface energy check value iteration history trace: 1720.930395,1720.930395,1720.930395,1720.930395,1720.930395,1720.930395,1720.930394,1720.930394,1720.930394,1720.930394,
   **   ~~~   ** Supply-to-demand interface deck 1 energy check value iteration history trace: 2695.943512,2695.943511,2695.943511,2695.943511,2695.943511,2695.943511,2695.943511,2695.943510,2695.943510,2695.943510,
   ** Warning ** SimHVAC: Maximum iterations (20) exceeded for all HVAC loops, at ANNUAL, 02/17 09:15 - 09:17
   **   ~~~   ** The solution for one or more of the Air Loop HVAC systems did not appear to converge
   **   ~~~   ** Air System Named = CENTRAL SYSTEM did not converge for mass flow rate
   **   ~~~   ** Check values should be zero. Most Recent values listed first.
   **   ~~~   ** Demand-to-Supply interface mass flow rate check value iteration history trace: 7.414274E-002,7.414274E-002,7.414274E-002,7.414274E-002,7.414274E-002,7.414274E-002,7.414274E-002,7.414274E-002,7.414274E-002,7.414274E-002,
   **   ~~~   ** Supply-to-demand interface deck 1 mass flow rate check value iteration history trace: 7.414274E-002,7.414274E-002,7.414274E-002,7.414274E-002,7.414274E-002,7.414274E-002,7.414274E-002,7.414274E-002,7.414274E-002,7.414274E-002,
   **   ~~~   ** Air System Named = CENTRAL SYSTEM did not converge for energy
   **   ~~~   ** Check values should be zero. Most Recent values listed first.
   **   ~~~   ** Demand-to-Supply interface energy check value iteration history trace: 1469.225728,1469.225728,1469.225728,1469.225728,1469.225728,1469.225728,1469.225728,1469.225728,1469.225728,1469.225728,
   **   ~~~   ** Supply-to-demand interface deck 1 energy check value iteration history trace: 2459.257895,2459.257895,2459.257895,2459.257895,2459.257895,2459.257895,2459.257894,2459.257894,2459.257894,2459.257894,
   ** Warning ** SimHVAC: Maximum iterations (20) exceeded for all HVAC loops, at ANNUAL, 03/01 10:06 - 10:08
   **   ~~~   ** The solution for one or more of the Air Loop HVAC systems did not appear to converge
   **   ~~~   ** Air System Named = CENTRAL SYSTEM did not converge for mass flow rate
   **   ~~~   ** Check values should be zero. Most Recent values listed first.
   **   ~~~   ** Demand-to-Supply interface mass flow rate check value iteration history trace: 4.978149E-002,4.978149E-002,4.978149E-002,4.978149E-002,4.978149E-002,4.978149E-002,4.978149E-002,4.978149E-002,4.978149E-002,4.978149E-002,
   **   ~~~   ** Supply-to-demand interface deck 1 mass flow rate check value iteration history trace: 4.978149E-002,4.978149E-002,4.978149E-002,4.978149E-002,4.978149E-002,4.978149E-002,4.978149E-002,4.978149E-002,4.978149E-002,4.978149E-002,
   **   ~~~   ** Air System Named = CENTRAL SYSTEM did not converge for energy
   **   ~~~   ** Check values should be zero. Most Recent values listed first.
   **   ~~~   ** Demand-to-Supply interface energy check value iteration history trace: 983.494838,983.494838,983.494838,983.494838,983.494838,983.494838,983.494838,983.494838,983.494838,983.494838,
   **   ~~~   ** Supply-to-demand interface deck 1 energy check value iteration history trace: 1784.961700,1784.961700,1784.961700,1784.961700,1784.961700,1784.961700,1784.961700,1784.961700,1784.961700,1784.961700,
   ** Warning ** SimHVAC: Maximum iterations (20) exceeded for all HVAC loops, at ANNUAL, 03/08 09:30 - 09:45
   **   ~~~   ** The solution for one or more of the Air Loop HVAC systems did not appear to converge
   **   ~~~   ** Air System Named = CENTRAL SYSTEM did not converge for mass flow rate
   **   ~~~   ** Check values should be zero. Most Recent values listed first.
   **   ~~~   ** Demand-to-Supply interface mass flow rate check value iteration history trace: 6.080402E-002,6.080402E-002,6.080402E-002,6.080402E-002,6.080402E-002,6.080402E-002,6.080402E-002,6.080402E-002,6.080402E-002,6.080402E-002,
   **   ~~~   ** Supply-to-demand interface deck 1 mass flow rate check value iteration history trace: 6.080402E-002,6.080402E-002,6.080402E-002,6.080402E-002,6.080402E-002,6.080402E-002,6.080402E-002,6.080402E-002,6.080402E-002,6.080402E-002,
   **   ~~~   ** Air System Named = CENTRAL SYSTEM did not converge for energy
   **   ~~~   ** Check values should be zero. Most Recent values listed first.
   **   ~~~   ** Demand-to-Supply interface energy check value iteration history trace: 1204.902314,1204.902314,1204.902314,1204.902314,1204.902313,1204.902313,1204.902313,1204.902313,1204.902313,1204.902313,
   **   ~~~   ** Supply-to-demand interface deck 1 energy check value iteration history trace: 2014.912101,2014.912101,2014.912101,2014.912101,2014.912101,2014.912101,2014.912100,2014.912100,2014.912100,2014.912100,
   ** Warning ** SimHVAC: Maximum iterations (20) exceeded for all HVAC loops, at ANNUAL, 03/14 07:45 - 08:00
   **   ~~~   ** The solution for one or more of the Air Loop HVAC systems did not appear to converge
   **   ~~~   ** Air System Named = CENTRAL SYSTEM did not converge for mass flow rate
   **   ~~~   ** Check values should be zero. Most Recent values listed first.
   **   ~~~   ** Demand-to-Supply interface mass flow rate check value iteration history trace: 5.513995E-002,5.513995E-002,5.513995E-002,5.513995E-002,5.513995E-002,5.513995E-002,5.513995E-002,5.513995E-002,5.513995E-002,5.513995E-002,
   **   ~~~   ** Supply-to-demand interface deck 1 mass flow rate check value iteration history trace: 5.513995E-002,5.513995E-002,5.513995E-002,5.513995E-002,5.513995E-002,5.513995E-002,5.513995E-002,5.513995E-002,5.513995E-002,5.513995E-002,
   **   ~~~   ** Air System Named = CENTRAL SYSTEM did not converge for energy
   **   ~~~   ** Check values should be zero. Most Recent values listed first.
   **   ~~~   ** Demand-to-Supply interface energy check value iteration history trace: 1090.211195,1090.211195,1090.211195,1090.211195,1090.211195,1090.211195,1090.211195,1090.211195,1090.211195,1090.211195,
   **   ~~~   ** Supply-to-demand interface deck 1 energy check value iteration history trace: 2031.184213,2031.184213,2031.184213,2031.184213,2031.184213,2031.184213,2031.184213,2031.184213,2031.184213,2031.184213,
   ** Warning ** SimHVAC: Maximum iterations (20) exceeded for all HVAC loops, at ANNUAL, 03/23 09:52 - 09:53
   **   ~~~   ** The solution for one or more of the Air Loop HVAC systems did not appear to converge
   **   ~~~   ** Air System Named = CENTRAL SYSTEM did not converge for mass flow rate
   **   ~~~   ** Check values should be zero. Most Recent values listed first.
   **   ~~~   ** Demand-to-Supply interface mass flow rate check value iteration history trace: 4.878572E-002,4.878572E-002,4.878572E-002,4.878572E-002,4.878572E-002,4.878572E-002,4.878572E-002,4.878572E-002,4.878572E-002,4.878572E-002,
   **   ~~~   ** Supply-to-demand interface deck 1 mass flow rate check value iteration history trace: 4.878572E-002,4.878572E-002,4.878572E-002,4.878572E-002,4.878572E-002,4.878572E-002,4.878572E-002,4.878572E-002,4.878572E-002,4.878572E-002,
   **   ~~~   ** Air System Named = CENTRAL SYSTEM did not converge for energy
   **   ~~~   ** Check values should be zero. Most Recent values listed first.
   **   ~~~   ** Demand-to-Supply interface energy check value iteration history trace: 963.351403,963.351403,963.351403,963.351403,963.351403,963.351403,963.351403,963.351403,963.351403,963.351403,
   **   ~~~   ** Supply-to-demand interface deck 1 energy check value iteration history trace: 1741.999765,1741.999765,1741.999765,1741.999765,1741.999765,1741.999765,1741.999765,1741.999765,1741.999765,1741.999765,
   ** Warning ** SimHVAC: Maximum iterations (20) exceeded for all HVAC loops, at ANNUAL, 04/02 08:38 - 08:39
   **   ~~~   ** The solution for one or more of the Air Loop HVAC systems did not appear to converge
   **   ~~~   ** Air System Named = CENTRAL SYSTEM did not converge for mass flow rate
   **   ~~~   ** Check values should be zero. Most Recent values listed first.
   **   ~~~   ** Demand-to-Supply interface mass flow rate check value iteration history trace: 5.982000E-002,5.982000E-002,5.982000E-002,5.982000E-002,5.982000E-002,5.982000E-002,5.982000E-002,5.982000E-002,5.982000E-002,5.982000E-002,
   **   ~~~   ** Supply-to-demand interface deck 1 mass flow rate check value iteration history trace: 5.982000E-002,5.982000E-002,5.982000E-002,5.982000E-002,5.982000E-002,5.982000E-002,5.982000E-002,5.982000E-002,5.982000E-002,5.982000E-002,
   **   ~~~   ** Air System Named = CENTRAL SYSTEM did not converge for energy
   **   ~~~   ** Check values should be zero. Most Recent values listed first.
   **   ~~~   ** Demand-to-Supply interface energy check value iteration history trace: 1179.673884,1179.673884,1179.673884,1179.673884,1179.673884,1179.673884,1179.673884,1179.673884,1179.673884,1179.673884,
   **   ~~~   ** Supply-to-demand interface deck 1 energy check value iteration history trace: 2138.000616,2138.000616,2138.000616,2138.000616,2138.000616,2138.000616,2138.000615,2138.000615,2138.000615,2138.000615,
   ** Warning ** SimHVAC: Maximum iterations (20) exceeded for all HVAC loops, at ANNUAL, 04/15 08:11 - 08:13
   **   ~~~   ** The solution for one or more of the Air Loop HVAC systems did not appear to converge
   **   ~~~   ** Air System Named = CENTRAL SYSTEM did not converge for mass flow rate
   **   ~~~   ** Check values should be zero. Most Recent values listed first.
   **   ~~~   ** Demand-to-Supply interface mass flow rate check value iteration history trace: 4.619975E-002,4.619975E-002,4.619975E-002,4.619975E-002,4.619975E-002,4.619975E-002,4.619975E-002,4.619975E-002,4.619975E-002,4.619975E-002,
   **   ~~~   ** Supply-to-demand interface deck 1 mass flow rate check value iteration history trace: 4.619975E-002,4.619975E-002,4.619975E-002,4.619975E-002,4.619975E-002,4.619975E-002,4.619975E-002,4.619975E-002,4.619975E-002,4.619975E-002,
   **   ~~~   ** Air System Named = CENTRAL SYSTEM did not converge for energy
   **   ~~~   ** Check values should be zero. Most Recent values listed first.
   **   ~~~   ** Demand-to-Supply interface energy check value iteration history trace: 911.436198,911.436198,911.436198,911.436198,911.436198,911.436198,911.436198,911.436198,911.436198,911.436198,
   **   ~~~   ** Supply-to-demand interface deck 1 energy check value iteration history trace: 1715.508664,1715.508664,1715.508664,1715.508664,1715.508664,1715.508664,1715.508664,1715.508663,1715.508663,1715.508663,
   ************* Simulation Error Summary *************
   ** Warning ** The following Report Variables were requested but not generated -- check.rdd file
   **   ~~~   ** Either the IDF did not contain these elements, the variable name is misspelled,
   **   ~~~   ** or the requested variable is an advanced output which requires Output : Diagnostics, DisplayAdvancedReportVariables;
   ************* Key=*, VarName=BASEBOARD TOTAL HEATING ENERGY, Frequency=
   ************* Key=*, VarName=WATER HEATER NATURALGAS ENERGY, Frequency=
   ************* Key=*, VarName=COOLING COIL TOTAL HEATING ENERGY, Frequency=
   ************* There are 34 unused schedules in input.
   ************* There are 388 unused week schedules in input.
   ************* There are 396 unused day schedules in input.
   ************* Use Output:Diagnostics,DisplayUnusedSchedules; to see them.
   *************
   ************* ===== Recurring Error Summary =====
   ************* The following recurring error messages occurred.
   *************
   *************  ** Warning ** "TOTAL HOT WATER LOAD" - Target water temperature should be less than or equal to the hot water temperature error continues...
   *************  **   ~~~   **   This error occurred 162513 total times;
   *************  **   ~~~   **   during Warmup 0 times;
   *************  **   ~~~   **   during Sizing 0 times.
   *************  **   ~~~   **   Max=12.348456  Min=6.448712E-004
   *************
   *************  ** Warning ** Temperature out of range [-100. to 200.] (PsyPsatFnTemp)
   *************  **   ~~~   **   This error occurred 1 total times;
   *************  **   ~~~   **   during Warmup 0 times;
   *************  **   ~~~   **   during Sizing 0 times.
   *************  **   ~~~   **   Max=-232.287086 C  Min=-232.287086 C
   *************
   *************  ** Warning ** SimHVAC: Exceeding Maximum iterations for all HVAC loops, during ANNUAL continues
   *************  **   ~~~   **   This error occurred 15 total times;
   *************  **   ~~~   **   during Warmup 0 times;
   *************  **   ~~~   **   during Sizing 0 times.
   *************
   *************
   ************* ===== Final Error Summary =====
   ************* The following error categories occurred.  Consider correcting or noting.
   ************* Nominally Unused Constructions
   ************* ..The nominally unused constructions warning is provided to alert you to potential conditions that can cause
   ************* ..extra time during simulation. Each construction is calculated by the algorithm indicated in the HeatBalanceAlgorithm
   ************* ..object. You may remove the constructions indicated (when you use the DisplayExtraWarnings option).
   *************
   ************* EnergyPlus Warmup Error Summary. During Warmup: 1 Warning; 0 Severe Errors.
   ************* EnergyPlus Sizing Error Summary. During Sizing: 4 Warning; 0 Severe Errors.
   ************* EnergyPlus Completed Successfully-- 162562 Warning; 0 Severe Errors; Elapsed Time=00hr 01min 57.12sec
