Program Version,EnergyPlus, Version 22.2.0-c249759bad, YMD=2023.09.01 18:55,
   ************* Beginning Zone Sizing Calculations
   ** Warning ** ProcessScheduleInput: Schedule:Constant="ALWAYS ON DISCRETE", Schedule Type Limits Name="ONOFF" not found -- will not be validated
   ** Warning ** Foundation:Kiva="KIVA FOUNDATION", no Interior Horizontal Insulation Material Name defined
   **   ~~~   ** Interior Horizontal Insulation Depth will not be used.
   ** Warning ** CheckUsedConstructions: There are 15 nominally unused constructions in input.
   **   ~~~   ** Each Unused construction is shown.
   ************* Construction=INTERIOR FLOOR
   ************* Construction=INTERIOR WINDOW
   ************* Construction=EXTERIOR DOOR
   ************* Construction=INTERIOR DOOR
   ************* Construction=GABLE CONSTRUCTION
   ************* Construction=CRAWL_FLOOR
   ************* Construction=INSULATED PIPE
   ************* Construction=PLAIN PIPE
   ************* Construction=TDD PIPE
   ************* Construction=TDD DOME
   ************* Construction=TDD DIFFUSER
   ************* Construction=CRAWL WALL
   ************* Construction=CEILING-FLOOR-LAYER
   ************* Construction=SLAB CONSTRUCTION W FULL R10 INSULATION
   ************* Construction=SLAB CONSTRUCTION W FULL R5 INSULATION
   ** Warning ** GetDXCoils: Coil:Heating:DX:SingleSpeed="DX_HEATING_COIL" curve values
   **   ~~~   ** ... Defrost Energy Input Ratio Function of Temperature Curve Name = DEFROSTEIR output is not equal to 1.0 (+ or - 10%) at rated conditions.
   **   ~~~   ** ... Curve output at rated conditions = 0.152
   ************* Beginning System Sizing Calculations
   ************* Beginning Plant Sizing Calculations
   ** Warning ** Coil:WaterHeating:AirToWaterHeatPump:Wrapped "HEAT PUMP WATER HEATER EVAPORATOR": Rated air volume flow rate per watt of rated total water heating capacity is out of range
   **   ~~~   ** Min Rated Vol Flow Per Watt=[4.027E-005], Rated Vol Flow Per Watt=[1.510E-004], Max Rated Vol Flow Per Watt=[8.056E-005]. See Input-Output Reference Manual for valid range.
   ************* SizeFan: : Potential issue with equipment sizing for Fan:OnOff HEAT PUMP WATER HEATER FAN
   **   ~~~   ** User-Specified Maximum Flow Rate [m3/s] = 0.22653
   **   ~~~   ** differs from Design Size Maximum Flow Rate [m3/s] = 7.55250E-002
   **   ~~~   ** This may, or may not, indicate mismatched component sizes.
   **   ~~~   ** Verify that the value entered is intended and is consistent with other components.
   ** Warning ** Water heater = WATER HEATER TANK:  Recovery Efficiency and Energy Factor could not be calculated during the test for standard ratings
   **   ~~~   ** Setpoint was never recovered and/or heater never turned on
   ** Warning ** Check input. Pump nominal power or motor efficiency is set to 0, for pump=MAINS PRESSURE
   ** Warning ** Output:Meter: invalid Key Name="ELECTRIC_RANGE:INTERIOREQUIPMENT:ELECTRICITY" - not found.
   ** Warning ** Output:Meter: invalid Key Name="ELECTRIC_DRYER:INTERIOREQUIPMENT:ELECTRICITY" - not found.
   ** Warning ** Output:Meter: invalid Key Name="HEATRECOVERY:ELECTRICITY" - not found.
   ** Warning ** Output:Meter: invalid Key Name="HEATING:NATURALGAS" - not found.
   ** Warning ** Output:Meter: invalid Key Name="WATERSYSTEMS:NATURALGAS" - not found.
   ** Warning ** Output:Meter: invalid Key Name="PROPANE:FACILITY" - not found.
   ** Warning ** Output:Meter: invalid Key Name="HEATING:PROPANE" - not found.
   ************* Testing Individual Branch Integrity
   ************* All Branches passed integrity testing
   ************* Testing Individual Supply Air Path Integrity
   ************* All Supply Air Paths passed integrity testing
   ************* Testing Individual Return Air Path Integrity
   ************* All Return Air Paths passed integrity testing
   ************* No node connection errors were found.
   ************* Beginning Simulation
   ** Warning ** AirflowNetwork::Solver::validate_distribution: Heat pump water heater is simulated along with an AirflowNetwork but is not included in the AirflowNetwork.
   ** Warning ** CalcEquipmentFlowRates: "TOTAL HOT WATER LOAD" - Target water temperature is greater than the hot water temperature by (0.95 C)
   **   ~~~   **  Environment=EXTREME_WINTER, at Simulation time=02/03 03:45 - 04:00
   **   ~~~   ** ...target water temperature     = 53.33 C
   **   ~~~   ** ...hot water temperature        = 52.39 C
   **   ~~~   ** ...Target water temperature should be less than or equal to the hot water temperature. Verify temperature setpoints and schedules.
   ** Warning ** SimHVAC: Maximum iterations (20) exceeded for all HVAC loops, at EXTREME_SUMMER, 06/24 03:08 - 03:15
   **   ~~~   ** The solution for one or more of the Air Loop HVAC systems did not appear to converge
   **   ~~~   ** Air System Named = CENTRAL SYSTEM did not converge for mass flow rate
   **   ~~~   ** Check values should be zero. Most Recent values listed first.
   **   ~~~   ** Demand-to-Supply interface mass flow rate check value iteration history trace: 0.149443,0.149443,0.149443,0.149443,0.149443,0.149443,0.149443,0.149443,0.149443,0.149443,
   **   ~~~   ** Supply-to-demand interface deck 1 mass flow rate check value iteration history trace: 0.149443,0.149443,0.149443,0.149443,0.149443,0.149443,0.149443,0.149443,0.149443,0.149443,
   **   ~~~   ** Air System Named = CENTRAL SYSTEM did not converge for energy
   **   ~~~   ** Check values should be zero. Most Recent values listed first.
   **   ~~~   ** Demand-to-Supply interface energy check value iteration history trace: 3705.746980,3705.746982,3705.746984,3705.746986,3705.746988,3705.746990,3705.746992,3705.746994,3705.746996,3705.746997,
   **   ~~~   ** Supply-to-demand interface deck 1 energy check value iteration history trace: 2111.381010,2111.381011,2111.381012,2111.381013,2111.381014,2111.381015,2111.381016,2111.381017,2111.381018,2111.381020,
   ** Warning ** SimHVAC: Maximum iterations (20) exceeded for all HVAC loops, at ANNUAL, 01/06 18:45 - 19:00
   **   ~~~   ** The solution for one or more of the Air Loop HVAC systems did not appear to converge
   **   ~~~   ** Air System Named = CENTRAL SYSTEM did not converge for mass flow rate
   **   ~~~   ** Check values should be zero. Most Recent values listed first.
   **   ~~~   ** Demand-to-Supply interface mass flow rate check value iteration history trace: 6.791583E-002,6.791583E-002,6.791583E-002,6.791583E-002,6.791583E-002,6.791583E-002,6.791583E-002,6.791583E-002,6.791583E-002,6.791583E-002,
   **   ~~~   ** Supply-to-demand interface deck 1 mass flow rate check value iteration history trace: 6.791583E-002,6.791583E-002,6.791583E-002,6.791583E-002,6.791583E-002,6.791583E-002,6.791583E-002,6.791583E-002,6.791583E-002,6.791583E-002,
   **   ~~~   ** Air System Named = CENTRAL SYSTEM did not converge for energy
   **   ~~~   ** Check values should be zero. Most Recent values listed first.
   **   ~~~   ** Demand-to-Supply interface energy check value iteration history trace: 1343.712818,1343.712818,1343.712818,1343.712817,1343.712817,1343.712817,1343.712817,1343.712816,1343.712816,1343.712816,
   **   ~~~   ** Supply-to-demand interface deck 1 energy check value iteration history trace: 2296.634785,2296.634785,2296.634784,2296.634784,2296.634784,2296.634783,2296.634783,2296.634782,2296.634782,2296.634781,
   **   ~~~   ** Node named ZONE INLET NODE shows oscillating temperatures across iterations with a repeated value of 33.652887
   **   ~~~   ** Node named ZONE INLET NODE temperature [C] iteration history trace (most recent first): 33.652887,33.652887,33.652887,33.652887,33.652886,33.652886,33.652886,33.652886,33.652885,33.652885,
   ** Warning ** SimHVAC: Maximum iterations (20) exceeded for all HVAC loops, at ANNUAL, 01/06 18:53 - 19:00
   **   ~~~   ** The solution for one or more of the Air Loop HVAC systems did not appear to converge
   **   ~~~   ** Air System Named = CENTRAL SYSTEM did not converge for mass flow rate
   **   ~~~   ** Check values should be zero. Most Recent values listed first.
   **   ~~~   ** Demand-to-Supply interface mass flow rate check value iteration history trace: 6.744971E-002,6.744971E-002,6.744971E-002,6.744971E-002,6.744971E-002,6.744971E-002,6.744971E-002,6.744971E-002,6.744971E-002,6.744971E-002,
   **   ~~~   ** Supply-to-demand interface deck 1 mass flow rate check value iteration history trace: 6.744971E-002,6.744971E-002,6.744971E-002,6.744971E-002,6.744971E-002,6.744971E-002,6.744971E-002,6.744971E-002,6.744971E-002,6.744971E-002,
   **   ~~~   ** Air System Named = CENTRAL SYSTEM did not converge for energy
   **   ~~~   ** Check values should be zero. Most Recent values listed first.
   **   ~~~   ** Demand-to-Supply interface energy check value iteration history trace: 1336.395648,1336.395648,1336.395647,1336.395647,1336.395647,1336.395647,1336.395646,1336.395646,1336.395646,1336.395645,
   **   ~~~   ** Supply-to-demand interface deck 1 energy check value iteration history trace: 2282.667299,2282.667298,2282.667298,2282.667297,2282.667297,2282.667296,2282.667296,2282.667296,2282.667295,2282.667295,
   **   ~~~   ** Node named ZONE INLET NODE shows oscillating temperatures across iterations with a repeated value of 33.679367
   **   ~~~   ** Node named ZONE INLET NODE temperature [C] iteration history trace (most recent first): 33.679367,33.679367,33.679367,33.679367,33.679366,33.679366,33.679366,33.679366,33.679365,33.679365,
   ** Warning ** SimHVAC: Maximum iterations (20) exceeded for all HVAC loops, at ANNUAL, 01/10 09:45 - 10:00
   **   ~~~   ** The solution for one or more of the Air Loop HVAC systems did not appear to converge
   **   ~~~   ** Air System Named = CENTRAL SYSTEM did not converge for mass flow rate
   **   ~~~   ** Check values should be zero. Most Recent values listed first.
   **   ~~~   ** Demand-to-Supply interface mass flow rate check value iteration history trace: 6.971168E-002,6.971168E-002,6.971168E-002,6.971168E-002,6.971168E-002,6.971168E-002,6.971168E-002,6.971168E-002,6.971168E-002,6.971168E-002,
   **   ~~~   ** Supply-to-demand interface deck 1 mass flow rate check value iteration history trace: 6.971168E-002,6.971168E-002,6.971168E-002,6.971168E-002,6.971168E-002,6.971168E-002,6.971168E-002,6.971168E-002,6.971168E-002,6.971168E-002,
   **   ~~~   ** Air System Named = CENTRAL SYSTEM did not converge for energy
   **   ~~~   ** Check values should be zero. Most Recent values listed first.
   **   ~~~   ** Demand-to-Supply interface energy check value iteration history trace: 1381.424788,1381.424788,1381.424788,1381.424788,1381.424788,1381.424788,1381.424788,1381.424788,1381.424788,1381.424788,
   **   ~~~   ** Supply-to-demand interface deck 1 energy check value iteration history trace: 2308.099813,2308.099813,2308.099813,2308.099813,2308.099813,2308.099812,2308.099812,2308.099812,2308.099812,2308.099812,
   ** Warning ** SimHVAC: Maximum iterations (20) exceeded for all HVAC loops, at ANNUAL, 03/01 07:51 - 07:54
   **   ~~~   ** The solution for one or more of the Air Loop HVAC systems did not appear to converge
   **   ~~~   ** Air System Named = CENTRAL SYSTEM did not converge for mass flow rate
   **   ~~~   ** Check values should be zero. Most Recent values listed first.
   **   ~~~   ** Demand-to-Supply interface mass flow rate check value iteration history trace: 8.675730E-002,8.675730E-002,8.675730E-002,8.675730E-002,8.675730E-002,8.675730E-002,8.675730E-002,8.675730E-002,8.675730E-002,8.675730E-002,
   **   ~~~   ** Supply-to-demand interface deck 1 mass flow rate check value iteration history trace: 8.675730E-002,8.675730E-002,8.675730E-002,8.675730E-002,8.675730E-002,8.675730E-002,8.675730E-002,8.675730E-002,8.675730E-002,8.675730E-002,
   **   ~~~   ** Air System Named = CENTRAL SYSTEM did not converge for energy
   **   ~~~   ** Check values should be zero. Most Recent values listed first.
   **   ~~~   ** Demand-to-Supply interface energy check value iteration history trace: 2048.567446,2048.567446,2048.567446,2048.567446,2048.567447,2048.567447,2048.567447,2048.567447,2048.567448,2048.567448,
   **   ~~~   ** Supply-to-demand interface deck 1 energy check value iteration history trace: 1057.756582,1057.756582,1057.756582,1057.756582,1057.756582,1057.756582,1057.756583,1057.756583,1057.756583,1057.756583,
   ** Warning ** SimHVAC: Maximum iterations (20) exceeded for all HVAC loops, at ANNUAL, 03/01 08:41 - 08:43
   **   ~~~   ** The solution for one or more of the Air Loop HVAC systems did not appear to converge
   **   ~~~   ** Air System Named = CENTRAL SYSTEM did not converge for mass flow rate
   **   ~~~   ** Check values should be zero. Most Recent values listed first.
   **   ~~~   ** Demand-to-Supply interface mass flow rate check value iteration history trace: 1.214793E-002,1.214793E-002,1.214793E-002,1.214793E-002,1.214793E-002,1.214793E-002,1.214793E-002,1.214793E-002,1.214793E-002,1.214793E-002,
   **   ~~~   ** Supply-to-demand interface deck 1 mass flow rate check value iteration history trace: 1.214793E-002,1.214793E-002,1.214793E-002,1.214793E-002,1.214793E-002,1.214793E-002,1.214793E-002,1.214793E-002,1.214793E-002,1.214793E-002,
   **   ~~~   ** Air System Named = CENTRAL SYSTEM did not converge for energy
   **   ~~~   ** Check values should be zero. Most Recent values listed first.
   **   ~~~   ** Demand-to-Supply interface energy check value iteration history trace: 284.667187,284.667187,284.667187,284.667187,284.667187,284.667187,284.667187,284.667187,284.667187,284.667187,
   **   ~~~   ** Supply-to-demand interface deck 1 energy check value iteration history trace: 145.752850,145.752850,145.752850,145.752850,145.752850,145.752850,145.752850,145.752850,145.752850,145.752850,
   ** Warning ** SimHVAC: Maximum iterations (20) exceeded for all HVAC loops, at ANNUAL, 03/04 11:11 - 11:15
   **   ~~~   ** The solution for one or more of the Air Loop HVAC systems did not appear to converge
   **   ~~~   ** Air System Named = CENTRAL SYSTEM did not converge for mass flow rate
   **   ~~~   ** Check values should be zero. Most Recent values listed first.
   **   ~~~   ** Demand-to-Supply interface mass flow rate check value iteration history trace: 0.261943,0.261943,0.261943,0.261943,0.261943,0.261943,0.261943,0.261943,0.261943,0.261943,
   **   ~~~   ** Supply-to-demand interface deck 1 mass flow rate check value iteration history trace: 0.261943,0.261943,0.261943,0.261943,0.261943,0.261943,0.261943,0.261943,0.261943,0.261943,
   **   ~~~   ** Air System Named = CENTRAL SYSTEM did not converge for energy
   **   ~~~   ** Check values should be zero. Most Recent values listed first.
   **   ~~~   ** Demand-to-Supply interface energy check value iteration history trace: 6238.058555,6238.058556,6238.058556,6238.058556,6238.058557,6238.058557,6238.058557,6238.058558,6238.058558,6238.058559,
   **   ~~~   ** Supply-to-demand interface deck 1 energy check value iteration history trace: 2576.799707,2576.799707,2576.799708,2576.799708,2576.799708,2576.799708,2576.799708,2576.799708,2576.799708,2576.799709,
   ** Warning ** SimHVAC: Maximum iterations (20) exceeded for all HVAC loops, at ANNUAL, 03/07 09:08 - 09:11
   **   ~~~   ** The solution for one or more of the Air Loop HVAC systems did not appear to converge
   **   ~~~   ** Air System Named = CENTRAL SYSTEM did not converge for mass flow rate
   **   ~~~   ** Check values should be zero. Most Recent values listed first.
   **   ~~~   ** Demand-to-Supply interface mass flow rate check value iteration history trace: 0.126837,0.126837,0.126837,0.126837,0.126837,0.126837,0.126837,0.126837,0.126837,0.126837,
   **   ~~~   ** Supply-to-demand interface deck 1 mass flow rate check value iteration history trace: 0.126837,0.126837,0.126837,0.126837,0.126837,0.126837,0.126837,0.126837,0.126837,0.126837,
   **   ~~~   ** Air System Named = CENTRAL SYSTEM did not converge for energy
   **   ~~~   ** Check values should be zero. Most Recent values listed first.
   **   ~~~   ** Demand-to-Supply interface energy check value iteration history trace: 3000.702784,3000.702785,3000.702786,3000.702786,3000.702787,3000.702787,3000.702788,3000.702789,3000.702789,3000.702790,
   **   ~~~   ** Supply-to-demand interface deck 1 energy check value iteration history trace: 1418.422814,1418.422814,1418.422814,1418.422815,1418.422815,1418.422815,1418.422816,1418.422816,1418.422816,1418.422817,
   ** Warning ** SimHVAC: Maximum iterations (20) exceeded for all HVAC loops, at ANNUAL, 03/23 06:00 - 06:15
   **   ~~~   ** The solution for one or more of the Air Loop HVAC systems did not appear to converge
   **   ~~~   ** Air System Named = CENTRAL SYSTEM did not converge for mass flow rate
   **   ~~~   ** Check values should be zero. Most Recent values listed first.
   **   ~~~   ** Demand-to-Supply interface mass flow rate check value iteration history trace: 4.778727E-002,4.778727E-002,4.778727E-002,4.778727E-002,4.778727E-002,4.778727E-002,4.778727E-002,4.778727E-002,4.778727E-002,4.778727E-002,
   **   ~~~   ** Supply-to-demand interface deck 1 mass flow rate check value iteration history trace: 4.778727E-002,4.778727E-002,4.778727E-002,4.778727E-002,4.778727E-002,4.778727E-002,4.778727E-002,4.778727E-002,4.778727E-002,4.778727E-002,
   **   ~~~   ** Air System Named = CENTRAL SYSTEM did not converge for energy
   **   ~~~   ** Check values should be zero. Most Recent values listed first.
   **   ~~~   ** Demand-to-Supply interface energy check value iteration history trace: 947.547333,947.547333,947.547333,947.547333,947.547333,947.547333,947.547333,947.547332,947.547332,947.547332,
   **   ~~~   ** Supply-to-demand interface deck 1 energy check value iteration history trace: 1633.274870,1633.274870,1633.274870,1633.274870,1633.274870,1633.274870,1633.274870,1633.274870,1633.274870,1633.274870,
   ** Warning ** SimHVAC: Maximum iterations (20) exceeded for all HVAC loops, at ANNUAL, 12/02 03:45 - 04:00
   **   ~~~   ** The solution for one or more of the Air Loop HVAC systems did not appear to converge
   **   ~~~   ** Air System Named = CENTRAL SYSTEM did not converge for mass flow rate
   **   ~~~   ** Check values should be zero. Most Recent values listed first.
   **   ~~~   ** Demand-to-Supply interface mass flow rate check value iteration history trace: 8.615889E-002,8.615889E-002,8.615889E-002,8.615889E-002,8.615889E-002,8.615889E-002,8.615889E-002,8.615889E-002,8.615889E-002,8.615889E-002,
   **   ~~~   ** Supply-to-demand interface deck 1 mass flow rate check value iteration history trace: 8.615889E-002,8.615889E-002,8.615889E-002,8.615889E-002,8.615889E-002,8.615889E-002,8.615889E-002,8.615889E-002,8.615889E-002,8.615889E-002,
   **   ~~~   ** Air System Named = CENTRAL SYSTEM did not converge for energy
   **   ~~~   ** Check values should be zero. Most Recent values listed first.
   **   ~~~   ** Demand-to-Supply interface energy check value iteration history trace: 1596.277506,1596.277505,1596.277505,1596.277505,1596.277505,1596.277505,1596.277505,1596.277505,1596.277505,1596.277505,
   **   ~~~   ** Supply-to-demand interface deck 1 energy check value iteration history trace: 2455.652225,2455.652225,2455.652225,2455.652224,2455.652224,2455.652224,2455.652224,2455.652224,2455.652224,2455.652224,
   ** Warning ** SimHVAC: Maximum iterations (20) exceeded for all HVAC loops, at ANNUAL, 12/20 09:27 - 09:30
   **   ~~~   ** The solution for one or more of the Air Loop HVAC systems did not appear to converge
   **   ~~~   ** Air System Named = CENTRAL SYSTEM did not converge for mass flow rate
   **   ~~~   ** Check values should be zero. Most Recent values listed first.
   **   ~~~   ** Demand-to-Supply interface mass flow rate check value iteration history trace: 0.265719,0.265719,0.265719,0.265719,0.265719,0.265719,0.265719,0.265719,0.265719,0.265719,
   **   ~~~   ** Supply-to-demand interface deck 1 mass flow rate check value iteration history trace: 0.265719,0.265719,0.265719,0.265719,0.265719,0.265719,0.265719,0.265719,0.265719,0.265719,
   **   ~~~   ** Air System Named = CENTRAL SYSTEM did not converge for energy
   **   ~~~   ** Check values should be zero. Most Recent values listed first.
   **   ~~~   ** Demand-to-Supply interface energy check value iteration history trace: 6291.026495,6291.026496,6291.026496,6291.026497,6291.026497,6291.026497,6291.026498,6291.026498,6291.026498,6291.026499,
   **   ~~~   ** Supply-to-demand interface deck 1 energy check value iteration history trace: 3515.951135,3515.951135,3515.951135,3515.951135,3515.951136,3515.951136,3515.951136,3515.951136,3515.951136,3515.951137,
   ** Warning ** SimHVAC: Maximum iterations (20) exceeded for all HVAC loops, at ANNUAL, 12/24 10:50 - 10:55
   **   ~~~   ** The solution for one or more of the Air Loop HVAC systems did not appear to converge
   **   ~~~   ** Air System Named = CENTRAL SYSTEM did not converge for mass flow rate
   **   ~~~   ** Check values should be zero. Most Recent values listed first.
   **   ~~~   ** Demand-to-Supply interface mass flow rate check value iteration history trace: 5.414847E-002,5.414847E-002,5.414847E-002,5.414847E-002,5.414847E-002,5.414847E-002,5.414847E-002,5.414847E-002,5.414847E-002,5.414847E-002,
   **   ~~~   ** Supply-to-demand interface deck 1 mass flow rate check value iteration history trace: 5.414847E-002,5.414847E-002,5.414847E-002,5.414847E-002,5.414847E-002,5.414847E-002,5.414847E-002,5.414847E-002,5.414847E-002,5.414847E-002,
   **   ~~~   ** Air System Named = CENTRAL SYSTEM did not converge for energy
   **   ~~~   ** Check values should be zero. Most Recent values listed first.
   **   ~~~   ** Demand-to-Supply interface energy check value iteration history trace: 1064.019643,1064.019643,1064.019643,1064.019643,1064.019643,1064.019643,1064.019643,1064.019643,1064.019643,1064.019643,
   **   ~~~   ** Supply-to-demand interface deck 1 energy check value iteration history trace: 1884.387371,1884.387371,1884.387371,1884.387370,1884.387370,1884.387370,1884.387370,1884.387370,1884.387370,1884.387370,
   ************* Simulation Error Summary *************
   ** Warning ** The following Report Variables were requested but not generated -- check.rdd file
   **   ~~~   ** Either the IDF did not contain these elements, the variable name is misspelled,
   **   ~~~   ** or the requested variable is an advanced output which requires Output : Diagnostics, DisplayAdvancedReportVariables;
   ************* Key=*, VarName=BASEBOARD TOTAL HEATING ENERGY, Frequency=
   ************* Key=*, VarName=WATER HEATER NATURALGAS ENERGY, Frequency=
   ************* Key=*, VarName=COOLING COIL TOTAL HEATING ENERGY, Frequency=
   ************* There are 34 unused schedules in input.
   ************* There are 388 unused week schedules in input.
   ************* There are 396 unused day schedules in input.
   ************* Use Output:Diagnostics,DisplayUnusedSchedules; to see them.
   *************
   ************* ===== Recurring Error Summary =====
   ************* The following recurring error messages occurred.
   *************
   *************  ** Warning ** "TOTAL HOT WATER LOAD" - Target water temperature should be less than or equal to the hot water temperature error continues...
   *************  **   ~~~   **   This error occurred 65747 total times;
   *************  **   ~~~   **   during Warmup 0 times;
   *************  **   ~~~   **   during Sizing 0 times.
   *************  **   ~~~   **   Max=6.518177  Min=8.447081E-005
   *************
   *************
   ************* ===== Final Error Summary =====
   ************* The following error categories occurred.  Consider correcting or noting.
   ************* Nominally Unused Constructions
   ************* ..The nominally unused constructions warning is provided to alert you to potential conditions that can cause
   ************* ..extra time during simulation. Each construction is calculated by the algorithm indicated in the HeatBalanceAlgorithm
   ************* ..object. You may remove the constructions indicated (when you use the DisplayExtraWarnings option).
   *************
   ************* EnergyPlus Warmup Error Summary. During Warmup: 1 Warning; 0 Severe Errors.
   ************* EnergyPlus Sizing Error Summary. During Sizing: 4 Warning; 0 Severe Errors.
   ************* EnergyPlus Completed Successfully-- 65776 Warning; 0 Severe Errors; Elapsed Time=00hr 01min 34.92sec
