Program Version,EnergyPlus, Version 22.2.0-c249759bad, YMD=2023.09.01 19:06,
   ************* Beginning Zone Sizing Calculations
   ** Warning ** ProcessScheduleInput: Schedule:Constant="ALWAYS ON DISCRETE", Schedule Type Limits Name="ONOFF" not found -- will not be validated
   ** Warning ** Foundation:Kiva="KIVA FOUNDATION", no Interior Horizontal Insulation Material Name defined
   **   ~~~   ** Interior Horizontal Insulation Depth will not be used.
   ** Warning ** CheckUsedConstructions: There are 15 nominally unused constructions in input.
   **   ~~~   ** Each Unused construction is shown.
   ************* Construction=INTERIOR FLOOR
   ************* Construction=INTERIOR WINDOW
   ************* Construction=EXTERIOR DOOR
   ************* Construction=INTERIOR DOOR
   ************* Construction=GABLE CONSTRUCTION
   ************* Construction=CRAWL_FLOOR
   ************* Construction=INSULATED PIPE
   ************* Construction=PLAIN PIPE
   ************* Construction=TDD PIPE
   ************* Construction=TDD DOME
   ************* Construction=TDD DIFFUSER
   ************* Construction=CRAWL WALL
   ************* Construction=CEILING-FLOOR-LAYER
   ************* Construction=SLAB CONSTRUCTION W FULL R10 INSULATION
   ************* Construction=SLAB CONSTRUCTION W FULL R5 INSULATION
   ** Warning ** GetDXCoils: Coil:Heating:DX:SingleSpeed="DX_HEATING_COIL" curve values
   **   ~~~   ** ... Defrost Energy Input Ratio Function of Temperature Curve Name = DEFROSTEIR output is not equal to 1.0 (+ or - 10%) at rated conditions.
   **   ~~~   ** ... Curve output at rated conditions = 0.152
   ************* Beginning System Sizing Calculations
   ************* Beginning Plant Sizing Calculations
   ** Warning ** SizeDXCoil Coil:Cooling:DX:SingleSpeed DX_COOLING_COIL
   **   ~~~   ** ...Gross Rated Total Cooling Capacity [W] will be limited by the maximum rated volume flow per rated total capacity ratio.
   **   ~~~   ** ...DX coil volume flow rate ( m3/s ) = 0.502533
   **   ~~~   ** ...Requested capacity ( W ) = 6502.259
   **   ~~~   ** ...Requested flow/capacity ratio ( m3/s/W ) = 7.728E-005
   **   ~~~   ** ...Maximum flow/capacity ratio ( m3/s/W ) = 6.041E-005
   **   ~~~   ** ...Adjusted capacity ( W ) = 8318.708
   ** Warning ** SizeDXCoil Coil:Heating:DX:SingleSpeed DX_HEATING_COIL
   **   ~~~   ** ...Gross Rated Heating Capacity [W] will be limited by the maximum rated volume flow per rated total capacity ratio.
   **   ~~~   ** ...DX coil volume flow rate ( m3/s ) = 0.502533
   **   ~~~   ** ...Requested capacity ( W ) = 8318.708
   **   ~~~   ** ...Requested flow/capacity ratio ( m3/s/W ) = 6.041E-005
   **   ~~~   ** ...Maximum flow/capacity ratio ( m3/s/W ) = 6.041E-005
   **   ~~~   ** ...Adjusted capacity ( W ) = 8318.708
   ** Warning ** Coil:WaterHeating:AirToWaterHeatPump:Wrapped "HEAT PUMP WATER HEATER EVAPORATOR": Rated air volume flow rate per watt of rated total water heating capacity is out of range
   **   ~~~   ** Min Rated Vol Flow Per Watt=[4.027E-005], Rated Vol Flow Per Watt=[1.510E-004], Max Rated Vol Flow Per Watt=[8.056E-005]. See Input-Output Reference Manual for valid range.
   ************* SizeFan: : Potential issue with equipment sizing for Fan:OnOff HEAT PUMP WATER HEATER FAN
   **   ~~~   ** User-Specified Maximum Flow Rate [m3/s] = 0.22653
   **   ~~~   ** differs from Design Size Maximum Flow Rate [m3/s] = 7.55250E-002
   **   ~~~   ** This may, or may not, indicate mismatched component sizes.
   **   ~~~   ** Verify that the value entered is intended and is consistent with other components.
   ** Warning ** Water heater = WATER HEATER TANK:  Recovery Efficiency and Energy Factor could not be calculated during the test for standard ratings
   **   ~~~   ** Setpoint was never recovered and/or heater never turned on
   ** Warning ** Check input. Pump nominal power or motor efficiency is set to 0, for pump=MAINS PRESSURE
   ** Warning ** Output:Meter: invalid Key Name="ELECTRIC_RANGE:INTERIOREQUIPMENT:ELECTRICITY" - not found.
   ** Warning ** Output:Meter: invalid Key Name="ELECTRIC_DRYER:INTERIOREQUIPMENT:ELECTRICITY" - not found.
   ** Warning ** Output:Meter: invalid Key Name="HEATRECOVERY:ELECTRICITY" - not found.
   ** Warning ** Output:Meter: invalid Key Name="HEATING:NATURALGAS" - not found.
   ** Warning ** Output:Meter: invalid Key Name="WATERSYSTEMS:NATURALGAS" - not found.
   ** Warning ** Output:Meter: invalid Key Name="PROPANE:FACILITY" - not found.
   ** Warning ** Output:Meter: invalid Key Name="HEATING:PROPANE" - not found.
   ************* Testing Individual Branch Integrity
   ************* All Branches passed integrity testing
   ************* Testing Individual Supply Air Path Integrity
   ************* All Supply Air Paths passed integrity testing
   ************* Testing Individual Return Air Path Integrity
   ************* All Return Air Paths passed integrity testing
   ************* No node connection errors were found.
   ************* Beginning Simulation
   ** Warning ** AirflowNetwork::Solver::validate_distribution: Heat pump water heater is simulated along with an AirflowNetwork but is not included in the AirflowNetwork.
   ** Warning ** CalcEquipmentFlowRates: "TOTAL HOT WATER LOAD" - Target water temperature is greater than the hot water temperature by (1.18 C)
   **   ~~~   **  Environment=EXTREME_WINTER, at Simulation time=01/06 06:45 - 07:00
   **   ~~~   ** ...target water temperature     = 53.33 C
   **   ~~~   ** ...hot water temperature        = 52.15 C
   **   ~~~   ** ...Target water temperature should be less than or equal to the hot water temperature. Verify temperature setpoints and schedules.
   ** Warning ** SimHVAC: Maximum iterations (20) exceeded for all HVAC loops, at ANNUAL, 01/21 10:00 - 10:15
   **   ~~~   ** The solution for one or more of the Air Loop HVAC systems did not appear to converge
   **   ~~~   ** Air System Named = CENTRAL SYSTEM did not converge for mass flow rate
   **   ~~~   ** Check values should be zero. Most Recent values listed first.
   **   ~~~   ** Demand-to-Supply interface mass flow rate check value iteration history trace: 7.918271E-002,7.918271E-002,7.918271E-002,7.918271E-002,7.918271E-002,7.918271E-002,7.918271E-002,7.918271E-002,7.918271E-002,7.918271E-002,
   **   ~~~   ** Supply-to-demand interface deck 1 mass flow rate check value iteration history trace: 7.918271E-002,7.918271E-002,7.918271E-002,7.918271E-002,7.918271E-002,7.918271E-002,7.918271E-002,7.918271E-002,7.918271E-002,7.918271E-002,
   **   ~~~   ** Air System Named = CENTRAL SYSTEM did not converge for energy
   **   ~~~   ** Check values should be zero. Most Recent values listed first.
   **   ~~~   ** Demand-to-Supply interface energy check value iteration history trace: 1569.128971,1569.128971,1569.128970,1569.128970,1569.128970,1569.128970,1569.128970,1569.128970,1569.128970,1569.128970,
   **   ~~~   ** Supply-to-demand interface deck 1 energy check value iteration history trace: 2635.501415,2635.501415,2635.501415,2635.501415,2635.501415,2635.501415,2635.501415,2635.501415,2635.501414,2635.501414,
   ** Warning ** SimHVAC: Maximum iterations (20) exceeded for all HVAC loops, at ANNUAL, 01/21 10:42 - 10:43
   **   ~~~   ** The solution for one or more of the Air Loop HVAC systems did not appear to converge
   **   ~~~   ** Air System Named = CENTRAL SYSTEM did not converge for mass flow rate
   **   ~~~   ** Check values should be zero. Most Recent values listed first.
   **   ~~~   ** Demand-to-Supply interface mass flow rate check value iteration history trace: 6.779192E-002,6.779192E-002,6.779192E-002,6.779192E-002,6.779192E-002,6.779192E-002,6.779192E-002,6.779192E-002,6.779192E-002,6.779192E-002,
   **   ~~~   ** Supply-to-demand interface deck 1 mass flow rate check value iteration history trace: 6.779192E-002,6.779192E-002,6.779192E-002,6.779192E-002,6.779192E-002,6.779192E-002,6.779192E-002,6.779192E-002,6.779192E-002,6.779192E-002,
   **   ~~~   ** Air System Named = CENTRAL SYSTEM did not converge for energy
   **   ~~~   ** Check values should be zero. Most Recent values listed first.
   **   ~~~   ** Demand-to-Supply interface energy check value iteration history trace: 1343.194220,1343.194220,1343.194220,1343.194220,1343.194220,1343.194220,1343.194220,1343.194220,1343.194220,1343.194220,
   **   ~~~   ** Supply-to-demand interface deck 1 energy check value iteration history trace: 2411.928537,2411.928537,2411.928537,2411.928537,2411.928537,2411.928537,2411.928536,2411.928536,2411.928536,2411.928536,
   ** Warning ** SimHVAC: Maximum iterations (20) exceeded for all HVAC loops, at ANNUAL, 01/22 10:00 - 10:15
   **   ~~~   ** The solution for one or more of the Air Loop HVAC systems did not appear to converge
   **   ~~~   ** Air System Named = CENTRAL SYSTEM did not converge for mass flow rate
   **   ~~~   ** Check values should be zero. Most Recent values listed first.
   **   ~~~   ** Demand-to-Supply interface mass flow rate check value iteration history trace: 5.217897E-002,5.217897E-002,5.217897E-002,5.217897E-002,5.217897E-002,5.217897E-002,5.217897E-002,5.217897E-002,5.217897E-002,5.217897E-002,
   **   ~~~   ** Supply-to-demand interface deck 1 mass flow rate check value iteration history trace: 5.217897E-002,5.217897E-002,5.217897E-002,5.217897E-002,5.217897E-002,5.217897E-002,5.217897E-002,5.217897E-002,5.217897E-002,5.217897E-002,
   **   ~~~   ** Air System Named = CENTRAL SYSTEM did not converge for energy
   **   ~~~   ** Check values should be zero. Most Recent values listed first.
   **   ~~~   ** Demand-to-Supply interface energy check value iteration history trace: 1034.026146,1034.026146,1034.026146,1034.026146,1034.026146,1034.026146,1034.026145,1034.026145,1034.026145,1034.026145,
   **   ~~~   ** Supply-to-demand interface deck 1 energy check value iteration history trace: 1848.498630,1848.498630,1848.498630,1848.498630,1848.498630,1848.498629,1848.498629,1848.498629,1848.498629,1848.498629,
   ** Warning ** Temperature out of range [-100. to 200.] (PsyPsatFnTemp)
   **   ~~~   **  Routine=PsyTwbFnTdbWPb, Environment=ANNUAL, at Simulation time=02/12 05:45 - 05:52
   **   ~~~   **  Input Temperature=-232.28
   ** Warning ** SimHVAC: Maximum iterations (20) exceeded for all HVAC loops, at ANNUAL, 02/12 09:15 - 09:30
   **   ~~~   ** The solution for one or more of the Air Loop HVAC systems did not appear to converge
   **   ~~~   ** Air System Named = CENTRAL SYSTEM did not converge for mass flow rate
   **   ~~~   ** Check values should be zero. Most Recent values listed first.
   **   ~~~   ** Demand-to-Supply interface mass flow rate check value iteration history trace: 5.768518E-002,5.768518E-002,5.768518E-002,5.768518E-002,5.768518E-002,5.768518E-002,5.768518E-002,5.768518E-002,5.768518E-002,5.768518E-002,
   **   ~~~   ** Supply-to-demand interface deck 1 mass flow rate check value iteration history trace: 5.768518E-002,5.768518E-002,5.768518E-002,5.768518E-002,5.768518E-002,5.768518E-002,5.768518E-002,5.768518E-002,5.768518E-002,5.768518E-002,
   **   ~~~   ** Air System Named = CENTRAL SYSTEM did not converge for energy
   **   ~~~   ** Check values should be zero. Most Recent values listed first.
   **   ~~~   ** Demand-to-Supply interface energy check value iteration history trace: 1143.112227,1143.112227,1143.112227,1143.112227,1143.112227,1143.112227,1143.112227,1143.112227,1143.112227,1143.112227,
   **   ~~~   ** Supply-to-demand interface deck 1 energy check value iteration history trace: 2084.085708,2084.085708,2084.085708,2084.085708,2084.085707,2084.085707,2084.085707,2084.085707,2084.085707,2084.085707,
   ** Warning ** SimHVAC: Maximum iterations (20) exceeded for all HVAC loops, at ANNUAL, 03/13 08:00 - 08:02
   **   ~~~   ** The solution for one or more of the Air Loop HVAC systems did not appear to converge
   **   ~~~   ** Air System Named = CENTRAL SYSTEM did not converge for mass flow rate
   **   ~~~   ** Check values should be zero. Most Recent values listed first.
   **   ~~~   ** Demand-to-Supply interface mass flow rate check value iteration history trace: 6.331129E-002,6.331129E-002,6.331129E-002,6.331129E-002,6.331129E-002,6.331129E-002,6.331129E-002,6.331129E-002,6.331129E-002,6.331129E-002,
   **   ~~~   ** Supply-to-demand interface deck 1 mass flow rate check value iteration history trace: 6.331129E-002,6.331129E-002,6.331129E-002,6.331129E-002,6.331129E-002,6.331129E-002,6.331129E-002,6.331129E-002,6.331129E-002,6.331129E-002,
   **   ~~~   ** Air System Named = CENTRAL SYSTEM did not converge for energy
   **   ~~~   ** Check values should be zero. Most Recent values listed first.
   **   ~~~   ** Demand-to-Supply interface energy check value iteration history trace: 1254.542201,1254.542201,1254.542201,1254.542201,1254.542201,1254.542200,1254.542200,1254.542200,1254.542200,1254.542200,
   **   ~~~   ** Supply-to-demand interface deck 1 energy check value iteration history trace: 2276.761269,2276.761269,2276.761269,2276.761269,2276.761269,2276.761269,2276.761268,2276.761268,2276.761268,2276.761268,
   ** Warning ** SimHVAC: Maximum iterations (20) exceeded for all HVAC loops, at ANNUAL, 03/19 08:36 - 08:39
   **   ~~~   ** The solution for one or more of the Air Loop HVAC systems did not appear to converge
   **   ~~~   ** Air System Named = CENTRAL SYSTEM did not converge for mass flow rate
   **   ~~~   ** Check values should be zero. Most Recent values listed first.
   **   ~~~   ** Demand-to-Supply interface mass flow rate check value iteration history trace: 5.325107E-002,5.325107E-002,5.325107E-002,5.325107E-002,5.325107E-002,5.325107E-002,5.325107E-002,5.325107E-002,5.325107E-002,5.325107E-002,
   **   ~~~   ** Supply-to-demand interface deck 1 mass flow rate check value iteration history trace: 5.325107E-002,5.325107E-002,5.325107E-002,5.325107E-002,5.325107E-002,5.325107E-002,5.325107E-002,5.325107E-002,5.325107E-002,5.325107E-002,
   **   ~~~   ** Air System Named = CENTRAL SYSTEM did not converge for energy
   **   ~~~   ** Check values should be zero. Most Recent values listed first.
   **   ~~~   ** Demand-to-Supply interface energy check value iteration history trace: 1053.333946,1053.333946,1053.333946,1053.333946,1053.333946,1053.333946,1053.333946,1053.333946,1053.333946,1053.333946,
   **   ~~~   ** Supply-to-demand interface deck 1 energy check value iteration history trace: 2012.368654,2012.368654,2012.368654,2012.368654,2012.368654,2012.368654,2012.368654,2012.368653,2012.368653,2012.368653,
   ** Warning ** SimHVAC: Maximum iterations (20) exceeded for all HVAC loops, at ANNUAL, 03/29 08:40 - 08:41
   **   ~~~   ** The solution for one or more of the Air Loop HVAC systems did not appear to converge
   **   ~~~   ** Air System Named = CENTRAL SYSTEM did not converge for mass flow rate
   **   ~~~   ** Check values should be zero. Most Recent values listed first.
   **   ~~~   ** Demand-to-Supply interface mass flow rate check value iteration history trace: 6.076083E-002,6.076083E-002,6.076083E-002,6.076083E-002,6.076083E-002,6.076083E-002,6.076083E-002,6.076083E-002,6.076083E-002,6.076083E-002,
   **   ~~~   ** Supply-to-demand interface deck 1 mass flow rate check value iteration history trace: 6.076083E-002,6.076083E-002,6.076083E-002,6.076083E-002,6.076083E-002,6.076083E-002,6.076083E-002,6.076083E-002,6.076083E-002,6.076083E-002,
   **   ~~~   ** Air System Named = CENTRAL SYSTEM did not converge for energy
   **   ~~~   ** Check values should be zero. Most Recent values listed first.
   **   ~~~   ** Demand-to-Supply interface energy check value iteration history trace: 1202.541119,1202.541119,1202.541119,1202.541119,1202.541119,1202.541119,1202.541119,1202.541119,1202.541119,1202.541119,
   **   ~~~   ** Supply-to-demand interface deck 1 energy check value iteration history trace: 2243.404220,2243.404220,2243.404220,2243.404220,2243.404220,2243.404220,2243.404220,2243.404220,2243.404220,2243.404219,
   ** Warning ** SimHVAC: Maximum iterations (20) exceeded for all HVAC loops, at ANNUAL, 03/30 04:15 - 04:30
   **   ~~~   ** The solution for one or more of the Air Loop HVAC systems did not appear to converge
   **   ~~~   ** Air System Named = CENTRAL SYSTEM did not converge for mass flow rate
   **   ~~~   ** Check values should be zero. Most Recent values listed first.
   **   ~~~   ** Demand-to-Supply interface mass flow rate check value iteration history trace: 4.382417E-002,4.382417E-002,4.382417E-002,4.382417E-002,4.382417E-002,4.382417E-002,4.382417E-002,4.382417E-002,4.382417E-002,4.382417E-002,
   **   ~~~   ** Supply-to-demand interface deck 1 mass flow rate check value iteration history trace: 4.382417E-002,4.382417E-002,4.382417E-002,4.382417E-002,4.382417E-002,4.382417E-002,4.382417E-002,4.382417E-002,4.382417E-002,4.382417E-002,
   **   ~~~   ** Air System Named = CENTRAL SYSTEM did not converge for energy
   **   ~~~   ** Check values should be zero. Most Recent values listed first.
   **   ~~~   ** Demand-to-Supply interface energy check value iteration history trace: 818.457379,818.457379,818.457379,818.457379,818.457379,818.457379,818.457379,818.457379,818.457379,818.457379,
   **   ~~~   ** Supply-to-demand interface deck 1 energy check value iteration history trace: 1378.340042,1378.340042,1378.340042,1378.340042,1378.340042,1378.340042,1378.340042,1378.340042,1378.340042,1378.340042,
   ** Warning ** SimHVAC: Maximum iterations (20) exceeded for all HVAC loops, at ANNUAL, 03/30 08:24 - 08:26
   **   ~~~   ** The solution for one or more of the Air Loop HVAC systems did not appear to converge
   **   ~~~   ** Air System Named = CENTRAL SYSTEM did not converge for mass flow rate
   **   ~~~   ** Check values should be zero. Most Recent values listed first.
   **   ~~~   ** Demand-to-Supply interface mass flow rate check value iteration history trace: 4.131944E-002,4.131944E-002,4.131944E-002,4.131944E-002,4.131944E-002,4.131944E-002,4.131944E-002,4.131944E-002,4.131944E-002,4.131944E-002,
   **   ~~~   ** Supply-to-demand interface deck 1 mass flow rate check value iteration history trace: 4.131944E-002,4.131944E-002,4.131944E-002,4.131944E-002,4.131944E-002,4.131944E-002,4.131944E-002,4.131944E-002,4.131944E-002,4.131944E-002,
   **   ~~~   ** Air System Named = CENTRAL SYSTEM did not converge for energy
   **   ~~~   ** Check values should be zero. Most Recent values listed first.
   **   ~~~   ** Demand-to-Supply interface energy check value iteration history trace: 815.164643,815.164643,815.164643,815.164643,815.164643,815.164643,815.164643,815.164643,815.164643,815.164643,
   **   ~~~   ** Supply-to-demand interface deck 1 energy check value iteration history trace: 1578.977862,1578.977862,1578.977862,1578.977862,1578.977862,1578.977862,1578.977862,1578.977862,1578.977862,1578.977862,
   ** Warning ** SimHVAC: Maximum iterations (20) exceeded for all HVAC loops, at ANNUAL, 04/06 08:30 - 08:33
   **   ~~~   ** The solution for one or more of the Air Loop HVAC systems did not appear to converge
   **   ~~~   ** Air System Named = CENTRAL SYSTEM did not converge for mass flow rate
   **   ~~~   ** Check values should be zero. Most Recent values listed first.
   **   ~~~   ** Demand-to-Supply interface mass flow rate check value iteration history trace: 4.516600E-002,4.516600E-002,4.516600E-002,4.516600E-002,4.516600E-002,4.516600E-002,4.516600E-002,4.516600E-002,4.516600E-002,4.516600E-002,
   **   ~~~   ** Supply-to-demand interface deck 1 mass flow rate check value iteration history trace: 4.516600E-002,4.516600E-002,4.516600E-002,4.516600E-002,4.516600E-002,4.516600E-002,4.516600E-002,4.516600E-002,4.516600E-002,4.516600E-002,
   **   ~~~   ** Air System Named = CENTRAL SYSTEM did not converge for energy
   **   ~~~   ** Check values should be zero. Most Recent values listed first.
   **   ~~~   ** Demand-to-Supply interface energy check value iteration history trace: 892.464876,892.464876,892.464876,892.464876,892.464875,892.464875,892.464875,892.464875,892.464875,892.464875,
   **   ~~~   ** Supply-to-demand interface deck 1 energy check value iteration history trace: 1667.341239,1667.341239,1667.341239,1667.341238,1667.341238,1667.341238,1667.341238,1667.341238,1667.341238,1667.341238,
   ** Warning ** SimHVAC: Maximum iterations (20) exceeded for all HVAC loops, at ANNUAL, 04/08 07:08 - 07:15
   **   ~~~   ** The solution for one or more of the Air Loop HVAC systems did not appear to converge
   **   ~~~   ** Air System Named = CENTRAL SYSTEM did not converge for mass flow rate
   **   ~~~   ** Check values should be zero. Most Recent values listed first.
   **   ~~~   ** Demand-to-Supply interface mass flow rate check value iteration history trace: 1.781275E-002,1.781275E-002,1.781275E-002,1.781275E-002,1.781275E-002,1.781275E-002,1.781275E-002,1.781275E-002,1.781275E-002,1.781275E-002,
   **   ~~~   ** Supply-to-demand interface deck 1 mass flow rate check value iteration history trace: 1.781275E-002,1.781275E-002,1.781275E-002,1.781275E-002,1.781275E-002,1.781275E-002,1.781275E-002,1.781275E-002,1.781275E-002,1.781275E-002,
   **   ~~~   ** Air System Named = CENTRAL SYSTEM did not converge for energy
   **   ~~~   ** Check values should be zero. Most Recent values listed first.
   **   ~~~   ** Demand-to-Supply interface energy check value iteration history trace: 350.329690,350.329690,350.329690,350.329690,350.329690,350.329690,350.329690,350.329690,350.329690,350.329690,
   **   ~~~   ** Supply-to-demand interface deck 1 energy check value iteration history trace: 648.646960,648.646960,648.646960,648.646960,648.646960,648.646960,648.646960,648.646960,648.646960,648.646960,
   ** Warning ** WetBulb not converged after 101 iterations(PsyTwbFnTdbWPb)
   **   ~~~   **  Routine=Unknown, Environment=ANNUAL, at Simulation time=04/30 18:48 - 18:51
   **   ~~~   **  Input Temperature = 5.70
   **   ~~~   **  Input Humidity Ratio= 2.211507E-003
   **   ~~~   **  Input Pressure = 84808.00
   **   ~~~   **  Resultant Temperature= 0.18
   ** Warning ** SimHVAC: Maximum iterations (20) exceeded for all HVAC loops, at ANNUAL, 05/07 21:05 - 21:10
   **   ~~~   ** The solution for one or more of the Air Loop HVAC systems did not appear to converge
   **   ~~~   ** Air System Named = CENTRAL SYSTEM did not converge for mass flow rate
   **   ~~~   ** Check values should be zero. Most Recent values listed first.
   **   ~~~   ** Demand-to-Supply interface mass flow rate check value iteration history trace: 7.458267E-002,7.458267E-002,7.458267E-002,7.458267E-002,7.458267E-002,7.458267E-002,7.458267E-002,7.458267E-002,7.458267E-002,7.458267E-002,
   **   ~~~   ** Supply-to-demand interface deck 1 mass flow rate check value iteration history trace: 7.458267E-002,7.458267E-002,7.458267E-002,7.458267E-002,7.458267E-002,7.458267E-002,7.458267E-002,7.458267E-002,7.458267E-002,7.458267E-002,
   **   ~~~   ** Air System Named = CENTRAL SYSTEM did not converge for energy
   **   ~~~   ** Check values should be zero. Most Recent values listed first.
   **   ~~~   ** Demand-to-Supply interface energy check value iteration history trace: 1754.240537,1754.240537,1754.240537,1754.240537,1754.240537,1754.240537,1754.240538,1754.240538,1754.240538,1754.240538,
   **   ~~~   ** Supply-to-demand interface deck 1 energy check value iteration history trace: 571.205832,571.205832,571.205832,571.205832,571.205832,571.205832,571.205832,571.205832,571.205832,571.205832,
   ** Warning ** SimHVAC: Maximum iterations (20) exceeded for all HVAC loops, at ANNUAL, 05/12 09:04 - 09:06
   **   ~~~   ** The solution for one or more of the Air Loop HVAC systems did not appear to converge
   **   ~~~   ** Air System Named = CENTRAL SYSTEM did not converge for mass flow rate
   **   ~~~   ** Check values should be zero. Most Recent values listed first.
   **   ~~~   ** Demand-to-Supply interface mass flow rate check value iteration history trace: 0.176816,0.176816,0.176816,0.176816,0.176816,0.176816,0.176816,0.176816,0.176816,0.176816,
   **   ~~~   ** Supply-to-demand interface deck 1 mass flow rate check value iteration history trace: 0.176816,0.176816,0.176816,0.176816,0.176816,0.176816,0.176816,0.176816,0.176816,0.176816,
   **   ~~~   ** Air System Named = CENTRAL SYSTEM did not converge for energy
   **   ~~~   ** Check values should be zero. Most Recent values listed first.
   **   ~~~   ** Demand-to-Supply interface energy check value iteration history trace: 4188.104262,4188.104262,4188.104263,4188.104263,4188.104264,4188.104264,4188.104265,4188.104265,4188.104266,4188.104266,
   **   ~~~   ** Supply-to-demand interface deck 1 energy check value iteration history trace: 1368.368302,1368.368302,1368.368302,1368.368302,1368.368303,1368.368303,1368.368303,1368.368303,1368.368303,1368.368303,
   ** Warning ** SimHVAC: Maximum iterations (20) exceeded for all HVAC loops, at ANNUAL, 10/08 08:25 - 08:27
   **   ~~~   ** The solution for one or more of the Air Loop HVAC systems did not appear to converge
   **   ~~~   ** Air System Named = CENTRAL SYSTEM did not converge for mass flow rate
   **   ~~~   ** Check values should be zero. Most Recent values listed first.
   **   ~~~   ** Demand-to-Supply interface mass flow rate check value iteration history trace: 5.783069E-002,5.783069E-002,5.783069E-002,5.783069E-002,5.783069E-002,5.783069E-002,5.783069E-002,5.783069E-002,5.783069E-002,5.783069E-002,
   **   ~~~   ** Supply-to-demand interface deck 1 mass flow rate check value iteration history trace: 5.783069E-002,5.783069E-002,5.783069E-002,5.783069E-002,5.783069E-002,5.783069E-002,5.783069E-002,5.783069E-002,5.783069E-002,5.783069E-002,
   **   ~~~   ** Air System Named = CENTRAL SYSTEM did not converge for energy
   **   ~~~   ** Check values should be zero. Most Recent values listed first.
   **   ~~~   ** Demand-to-Supply interface energy check value iteration history trace: 1142.178632,1142.178632,1142.178632,1142.178632,1142.178632,1142.178632,1142.178632,1142.178632,1142.178632,1142.178632,
   **   ~~~   ** Supply-to-demand interface deck 1 energy check value iteration history trace: 2091.594775,2091.594775,2091.594775,2091.594775,2091.594775,2091.594775,2091.594775,2091.594775,2091.594775,2091.594775,
   ************* Simulation Error Summary *************
   ** Warning ** The following Report Variables were requested but not generated -- check.rdd file
   **   ~~~   ** Either the IDF did not contain these elements, the variable name is misspelled,
   **   ~~~   ** or the requested variable is an advanced output which requires Output : Diagnostics, DisplayAdvancedReportVariables;
   ************* Key=*, VarName=BASEBOARD TOTAL HEATING ENERGY, Frequency=
   ************* Key=*, VarName=WATER HEATER NATURALGAS ENERGY, Frequency=
   ************* Key=*, VarName=COOLING COIL TOTAL HEATING ENERGY, Frequency=
   ************* There are 34 unused schedules in input.
   ************* There are 388 unused week schedules in input.
   ************* There are 397 unused day schedules in input.
   ************* Use Output:Diagnostics,DisplayUnusedSchedules; to see them.
   *************
   ************* ===== Recurring Error Summary =====
   ************* The following recurring error messages occurred.
   *************
   *************  ** Warning ** "TOTAL HOT WATER LOAD" - Target water temperature should be less than or equal to the hot water temperature error continues...
   *************  **   ~~~   **   This error occurred 140405 total times;
   *************  **   ~~~   **   during Warmup 0 times;
   *************  **   ~~~   **   during Sizing 0 times.
   *************  **   ~~~   **   Max=9.575106  Min=1.316817E-003
   *************
   *************  ** Warning ** Temperature out of range [-100. to 200.] (PsyPsatFnTemp)
   *************  **   ~~~   **   This error occurred 3 total times;
   *************  **   ~~~   **   during Warmup 0 times;
   *************  **   ~~~   **   during Sizing 0 times.
   *************  **   ~~~   **   Max=-119.538136 C  Min=-232.287086 C
   *************
   *************  ** Warning ** WetBulb not converged after max iterations(PsyTwbFnTdbWPb)
   *************  **   ~~~   **   This error occurred 26 total times;
   *************  **   ~~~   **   during Warmup 0 times;
   *************  **   ~~~   **   during Sizing 0 times.
   *************
   *************  ** Warning ** SimHVAC: Exceeding Maximum iterations for all HVAC loops, during ANNUAL continues
   *************  **   ~~~   **   This error occurred 10 total times;
   *************  **   ~~~   **   during Warmup 0 times;
   *************  **   ~~~   **   during Sizing 0 times.
   *************
   *************
   ************* ===== Final Error Summary =====
   ************* The following error categories occurred.  Consider correcting or noting.
   ************* Nominally Unused Constructions
   ************* ..The nominally unused constructions warning is provided to alert you to potential conditions that can cause
   ************* ..extra time during simulation. Each construction is calculated by the algorithm indicated in the HeatBalanceAlgorithm
   ************* ..object. You may remove the constructions indicated (when you use the DisplayExtraWarnings option).
   *************
   ************* EnergyPlus Warmup Error Summary. During Warmup: 1 Warning; 0 Severe Errors.
   ************* EnergyPlus Sizing Error Summary. During Sizing: 4 Warning; 0 Severe Errors.
   ************* EnergyPlus Completed Successfully-- 140477 Warning; 0 Severe Errors; Elapsed Time=00hr 01min 59.25sec
