Program Version,EnergyPlus, Version 22.2.0-c249759bad, YMD=2023.09.01 20:08,
   ************* Beginning Zone Sizing Calculations
   ** Warning ** ProcessScheduleInput: Schedule:Constant="ALWAYS ON DISCRETE", Schedule Type Limits Name="ONOFF" not found -- will not be validated
   ** Warning ** Foundation:Kiva="KIVA FOUNDATION", no Interior Horizontal Insulation Material Name defined
   **   ~~~   ** Interior Horizontal Insulation Depth will not be used.
   ** Warning ** CheckUsedConstructions: There are 15 nominally unused constructions in input.
   **   ~~~   ** Each Unused construction is shown.
   ************* Construction=INTERIOR FLOOR
   ************* Construction=INTERIOR WINDOW
   ************* Construction=EXTERIOR DOOR
   ************* Construction=INTERIOR DOOR
   ************* Construction=GABLE CONSTRUCTION
   ************* Construction=CRAWL_FLOOR
   ************* Construction=INSULATED PIPE
   ************* Construction=PLAIN PIPE
   ************* Construction=TDD PIPE
   ************* Construction=TDD DOME
   ************* Construction=TDD DIFFUSER
   ************* Construction=CRAWL WALL
   ************* Construction=CEILING-FLOOR-LAYER
   ************* Construction=SLAB CONSTRUCTION W FULL R10 INSULATION
   ************* Construction=SLAB CONSTRUCTION W FULL R5 INSULATION
   ** Warning ** GetDXCoils: Coil:Heating:DX:SingleSpeed="DX_HEATING_COIL" curve values
   **   ~~~   ** ... Defrost Energy Input Ratio Function of Temperature Curve Name = DEFROSTEIR output is not equal to 1.0 (+ or - 10%) at rated conditions.
   **   ~~~   ** ... Curve output at rated conditions = 0.152
   ************* Beginning System Sizing Calculations
   ************* Beginning Plant Sizing Calculations
   ** Warning ** SizeDXCoil Coil:Cooling:DX:SingleSpeed DX_COOLING_COIL
   **   ~~~   ** ...Gross Rated Total Cooling Capacity [W] will be limited by the maximum rated volume flow per rated total capacity ratio.
   **   ~~~   ** ...DX coil volume flow rate ( m3/s ) = 0.389226
   **   ~~~   ** ...Requested capacity ( W ) = 6081.982
   **   ~~~   ** ...Requested flow/capacity ratio ( m3/s/W ) = 6.399E-005
   **   ~~~   ** ...Maximum flow/capacity ratio ( m3/s/W ) = 6.041E-005
   **   ~~~   ** ...Adjusted capacity ( W ) = 6443.086
   ** Warning ** Coil:WaterHeating:AirToWaterHeatPump:Wrapped "HEAT PUMP WATER HEATER EVAPORATOR": Rated air volume flow rate per watt of rated total water heating capacity is out of range
   **   ~~~   ** Min Rated Vol Flow Per Watt=[4.027E-005], Rated Vol Flow Per Watt=[1.510E-004], Max Rated Vol Flow Per Watt=[8.056E-005]. See Input-Output Reference Manual for valid range.
   ************* SizeFan: : Potential issue with equipment sizing for Fan:OnOff HEAT PUMP WATER HEATER FAN
   **   ~~~   ** User-Specified Maximum Flow Rate [m3/s] = 0.22653
   **   ~~~   ** differs from Design Size Maximum Flow Rate [m3/s] = 7.55250E-002
   **   ~~~   ** This may, or may not, indicate mismatched component sizes.
   **   ~~~   ** Verify that the value entered is intended and is consistent with other components.
   ** Warning ** Water heater = WATER HEATER TANK:  Recovery Efficiency and Energy Factor could not be calculated during the test for standard ratings
   **   ~~~   ** Setpoint was never recovered and/or heater never turned on
   ** Warning ** Check input. Pump nominal power or motor efficiency is set to 0, for pump=MAINS PRESSURE
   ** Warning ** Output:Meter: invalid Key Name="ELECTRIC_RANGE:INTERIOREQUIPMENT:ELECTRICITY" - not found.
   ** Warning ** Output:Meter: invalid Key Name="ELECTRIC_DRYER:INTERIOREQUIPMENT:ELECTRICITY" - not found.
   ** Warning ** Output:Meter: invalid Key Name="HEATRECOVERY:ELECTRICITY" - not found.
   ** Warning ** Output:Meter: invalid Key Name="HEATING:NATURALGAS" - not found.
   ** Warning ** Output:Meter: invalid Key Name="WATERSYSTEMS:NATURALGAS" - not found.
   ** Warning ** Output:Meter: invalid Key Name="PROPANE:FACILITY" - not found.
   ** Warning ** Output:Meter: invalid Key Name="HEATING:PROPANE" - not found.
   ************* Testing Individual Branch Integrity
   ************* All Branches passed integrity testing
   ************* Testing Individual Supply Air Path Integrity
   ************* All Supply Air Paths passed integrity testing
   ************* Testing Individual Return Air Path Integrity
   ************* All Return Air Paths passed integrity testing
   ************* No node connection errors were found.
   ************* Beginning Simulation
   ** Warning ** AirflowNetwork::Solver::validate_distribution: Heat pump water heater is simulated along with an AirflowNetwork but is not included in the AirflowNetwork.
   ** Warning ** CalcEquipmentFlowRates: "TOTAL HOT WATER LOAD" - Target water temperature is greater than the hot water temperature by (3.65 C)
   **   ~~~   **  Environment=EXTREME_WINTER, at Simulation time=01/20 07:00 - 07:15
   **   ~~~   ** ...target water temperature     = 53.33 C
   **   ~~~   ** ...hot water temperature        = 49.68 C
   **   ~~~   ** ...Target water temperature should be less than or equal to the hot water temperature. Verify temperature setpoints and schedules.
   ** Warning ** SimHVAC: Maximum iterations (20) exceeded for all HVAC loops, at ANNUAL, 02/07 18:00 - 18:15
   **   ~~~   ** The solution for one or more of the Air Loop HVAC systems did not appear to converge
   **   ~~~   ** Air System Named = CENTRAL SYSTEM did not converge for mass flow rate
   **   ~~~   ** Check values should be zero. Most Recent values listed first.
   **   ~~~   ** Demand-to-Supply interface mass flow rate check value iteration history trace: 6.301862E-002,6.301862E-002,6.301862E-002,6.301862E-002,6.301862E-002,6.301862E-002,6.301862E-002,6.301862E-002,6.301862E-002,6.301862E-002,
   **   ~~~   ** Supply-to-demand interface deck 1 mass flow rate check value iteration history trace: 6.301862E-002,6.301862E-002,6.301862E-002,6.301862E-002,6.301862E-002,6.301862E-002,6.301862E-002,6.301862E-002,6.301862E-002,6.301862E-002,
   **   ~~~   ** Air System Named = CENTRAL SYSTEM did not converge for energy
   **   ~~~   ** Check values should be zero. Most Recent values listed first.
   **   ~~~   ** Demand-to-Supply interface energy check value iteration history trace: 1248.855208,1248.855208,1248.855208,1248.855208,1248.855208,1248.855208,1248.855207,1248.855207,1248.855207,1248.855207,
   **   ~~~   ** Supply-to-demand interface deck 1 energy check value iteration history trace: 2178.262535,2178.262535,2178.262535,2178.262535,2178.262535,2178.262535,2178.262535,2178.262535,2178.262535,2178.262535,
   ** Warning ** SimHVAC: Maximum iterations (20) exceeded for all HVAC loops, at ANNUAL, 02/18 22:08 - 22:11
   **   ~~~   ** The solution for one or more of the Air Loop HVAC systems did not appear to converge
   **   ~~~   ** Air System Named = CENTRAL SYSTEM did not converge for mass flow rate
   **   ~~~   ** Check values should be zero. Most Recent values listed first.
   **   ~~~   ** Demand-to-Supply interface mass flow rate check value iteration history trace: 0.102014,0.102014,0.102014,0.102014,0.102014,0.102014,0.102014,0.102014,0.102014,0.102014,
   **   ~~~   ** Supply-to-demand interface deck 1 mass flow rate check value iteration history trace: 0.102014,0.102014,0.102014,0.102014,0.102014,0.102014,0.102014,0.102014,0.102014,0.102014,
   **   ~~~   ** Air System Named = CENTRAL SYSTEM did not converge for energy
   **   ~~~   ** Check values should be zero. Most Recent values listed first.
   **   ~~~   ** Demand-to-Supply interface energy check value iteration history trace: 1936.016842,1936.016842,1936.016842,1936.016842,1936.016842,1936.016842,1936.016841,1936.016841,1936.016841,1936.016841,
   **   ~~~   ** Supply-to-demand interface deck 1 energy check value iteration history trace: 2926.603100,2926.603099,2926.603099,2926.603099,2926.603099,2926.603098,2926.603098,2926.603098,2926.603098,2926.603098,
   ** Warning ** SimHVAC: Maximum iterations (20) exceeded for all HVAC loops, at ANNUAL, 03/01 12:30 - 12:35
   **   ~~~   ** The solution for one or more of the Air Loop HVAC systems did not appear to converge
   **   ~~~   ** Air System Named = CENTRAL SYSTEM did not converge for mass flow rate
   **   ~~~   ** Check values should be zero. Most Recent values listed first.
   **   ~~~   ** Demand-to-Supply interface mass flow rate check value iteration history trace: 7.803671E-002,7.803671E-002,7.803671E-002,7.803671E-002,7.803671E-002,7.803671E-002,7.803671E-002,7.803671E-002,7.803671E-002,7.803671E-002,
   **   ~~~   ** Supply-to-demand interface deck 1 mass flow rate check value iteration history trace: 7.803671E-002,7.803671E-002,7.803671E-002,7.803671E-002,7.803671E-002,7.803671E-002,7.803671E-002,7.803671E-002,7.803671E-002,7.803671E-002,
   **   ~~~   ** Air System Named = CENTRAL SYSTEM did not converge for energy
   **   ~~~   ** Check values should be zero. Most Recent values listed first.
   **   ~~~   ** Demand-to-Supply interface energy check value iteration history trace: 1534.499905,1534.499905,1534.499905,1534.499905,1534.499905,1534.499905,1534.499905,1534.499905,1534.499904,1534.499904,
   **   ~~~   ** Supply-to-demand interface deck 1 energy check value iteration history trace: 2398.177298,2398.177298,2398.177298,2398.177297,2398.177297,2398.177297,2398.177297,2398.177297,2398.177297,2398.177296,
   ** Warning ** SimHVAC: Maximum iterations (20) exceeded for all HVAC loops, at ANNUAL, 03/14 11:34 - 11:38
   **   ~~~   ** The solution for one or more of the Air Loop HVAC systems did not appear to converge
   **   ~~~   ** Air System Named = CENTRAL SYSTEM did not converge for mass flow rate
   **   ~~~   ** Check values should be zero. Most Recent values listed first.
   **   ~~~   ** Demand-to-Supply interface mass flow rate check value iteration history trace: 7.904230E-002,7.904230E-002,7.904230E-002,7.904230E-002,7.904230E-002,7.904230E-002,7.904230E-002,7.904230E-002,7.904230E-002,7.904230E-002,
   **   ~~~   ** Supply-to-demand interface deck 1 mass flow rate check value iteration history trace: 7.904230E-002,7.904230E-002,7.904230E-002,7.904230E-002,7.904230E-002,7.904230E-002,7.904230E-002,7.904230E-002,7.904230E-002,7.904230E-002,
   **   ~~~   ** Air System Named = CENTRAL SYSTEM did not converge for energy
   **   ~~~   ** Check values should be zero. Most Recent values listed first.
   **   ~~~   ** Demand-to-Supply interface energy check value iteration history trace: 1560.532682,1560.532682,1560.532682,1560.532682,1560.532682,1560.532681,1560.532681,1560.532681,1560.532681,1560.532681,
   **   ~~~   ** Supply-to-demand interface deck 1 energy check value iteration history trace: 2662.859831,2662.859830,2662.859830,2662.859830,2662.859830,2662.859830,2662.859830,2662.859830,2662.859829,2662.859829,
   ** Warning ** SimHVAC: Maximum iterations (20) exceeded for all HVAC loops, at ANNUAL, 03/15 16:00 - 16:15
   **   ~~~   ** The solution for one or more of the Air Loop HVAC systems did not appear to converge
   **   ~~~   ** Air System Named = CENTRAL SYSTEM did not converge for mass flow rate
   **   ~~~   ** Check values should be zero. Most Recent values listed first.
   **   ~~~   ** Demand-to-Supply interface mass flow rate check value iteration history trace: 6.597004E-002,6.597004E-002,6.597004E-002,6.597004E-002,6.597004E-002,6.597004E-002,6.597004E-002,6.597004E-002,6.597004E-002,6.597004E-002,
   **   ~~~   ** Supply-to-demand interface deck 1 mass flow rate check value iteration history trace: 6.597004E-002,6.597004E-002,6.597004E-002,6.597004E-002,6.597004E-002,6.597004E-002,6.597004E-002,6.597004E-002,6.597004E-002,6.597004E-002,
   **   ~~~   ** Air System Named = CENTRAL SYSTEM did not converge for energy
   **   ~~~   ** Check values should be zero. Most Recent values listed first.
   **   ~~~   ** Demand-to-Supply interface energy check value iteration history trace: 1305.258988,1305.258988,1305.258988,1305.258988,1305.258988,1305.258988,1305.258988,1305.258988,1305.258988,1305.258988,
   **   ~~~   ** Supply-to-demand interface deck 1 energy check value iteration history trace: 2288.501393,2288.501393,2288.501393,2288.501393,2288.501393,2288.501393,2288.501393,2288.501393,2288.501392,2288.501392,
   ** Warning ** SimHVAC: Maximum iterations (20) exceeded for all HVAC loops, at ANNUAL, 03/16 12:00 - 12:15
   **   ~~~   ** The solution for one or more of the Air Loop HVAC systems did not appear to converge
   **   ~~~   ** Air System Named = CENTRAL SYSTEM did not converge for mass flow rate
   **   ~~~   ** Check values should be zero. Most Recent values listed first.
   **   ~~~   ** Demand-to-Supply interface mass flow rate check value iteration history trace: 6.357974E-002,6.357974E-002,6.357974E-002,6.357974E-002,6.357974E-002,6.357974E-002,6.357974E-002,6.357974E-002,6.357974E-002,6.357974E-002,
   **   ~~~   ** Supply-to-demand interface deck 1 mass flow rate check value iteration history trace: 6.357974E-002,6.357974E-002,6.357974E-002,6.357974E-002,6.357974E-002,6.357974E-002,6.357974E-002,6.357974E-002,6.357974E-002,6.357974E-002,
   **   ~~~   ** Air System Named = CENTRAL SYSTEM did not converge for energy
   **   ~~~   ** Check values should be zero. Most Recent values listed first.
   **   ~~~   ** Demand-to-Supply interface energy check value iteration history trace: 1259.942666,1259.942666,1259.942666,1259.942666,1259.942666,1259.942666,1259.942666,1259.942666,1259.942666,1259.942666,
   **   ~~~   ** Supply-to-demand interface deck 1 energy check value iteration history trace: 2195.165455,2195.165455,2195.165455,2195.165454,2195.165454,2195.165454,2195.165454,2195.165454,2195.165454,2195.165454,
   ** Warning ** SimHVAC: Maximum iterations (20) exceeded for all HVAC loops, at ANNUAL, 03/26 11:15 - 11:30
   **   ~~~   ** The solution for one or more of the Air Loop HVAC systems did not appear to converge
   **   ~~~   ** Air System Named = CENTRAL SYSTEM did not converge for mass flow rate
   **   ~~~   ** Check values should be zero. Most Recent values listed first.
   **   ~~~   ** Demand-to-Supply interface mass flow rate check value iteration history trace: 8.902393E-002,8.902393E-002,8.902393E-002,8.902393E-002,8.902393E-002,8.902393E-002,8.902393E-002,8.902393E-002,8.902393E-002,8.902393E-002,
   **   ~~~   ** Supply-to-demand interface deck 1 mass flow rate check value iteration history trace: 8.902393E-002,8.902393E-002,8.902393E-002,8.902393E-002,8.902393E-002,8.902393E-002,8.902393E-002,8.902393E-002,8.902393E-002,8.902393E-002,
   **   ~~~   ** Air System Named = CENTRAL SYSTEM did not converge for energy
   **   ~~~   ** Check values should be zero. Most Recent values listed first.
   **   ~~~   ** Demand-to-Supply interface energy check value iteration history trace: 1764.182987,1764.182986,1764.182986,1764.182986,1764.182986,1764.182986,1764.182986,1764.182986,1764.182986,1764.182986,
   **   ~~~   ** Supply-to-demand interface deck 1 energy check value iteration history trace: 2721.746989,2721.746989,2721.746989,2721.746989,2721.746988,2721.746988,2721.746988,2721.746988,2721.746988,2721.746988,
   ** Warning ** SimHVAC: Maximum iterations (20) exceeded for all HVAC loops, at ANNUAL, 03/27 11:15 - 11:30
   **   ~~~   ** The solution for one or more of the Air Loop HVAC systems did not appear to converge
   **   ~~~   ** Air System Named = CENTRAL SYSTEM did not converge for mass flow rate
   **   ~~~   ** Check values should be zero. Most Recent values listed first.
   **   ~~~   ** Demand-to-Supply interface mass flow rate check value iteration history trace: 8.114193E-002,8.114193E-002,8.114193E-002,8.114193E-002,8.114193E-002,8.114193E-002,8.114193E-002,8.114193E-002,8.114193E-002,8.114193E-002,
   **   ~~~   ** Supply-to-demand interface deck 1 mass flow rate check value iteration history trace: 8.114193E-002,8.114193E-002,8.114193E-002,8.114193E-002,8.114193E-002,8.114193E-002,8.114193E-002,8.114193E-002,8.114193E-002,8.114193E-002,
   **   ~~~   ** Air System Named = CENTRAL SYSTEM did not converge for energy
   **   ~~~   ** Check values should be zero. Most Recent values listed first.
   **   ~~~   ** Demand-to-Supply interface energy check value iteration history trace: 1607.957862,1607.957862,1607.957862,1607.957862,1607.957861,1607.957861,1607.957861,1607.957861,1607.957861,1607.957861,
   **   ~~~   ** Supply-to-demand interface deck 1 energy check value iteration history trace: 2500.342352,2500.342352,2500.342352,2500.342352,2500.342351,2500.342351,2500.342351,2500.342351,2500.342351,2500.342351,
   ** Warning ** SimHVAC: Maximum iterations (20) exceeded for all HVAC loops, at ANNUAL, 03/29 12:02 - 12:04
   **   ~~~   ** The solution for one or more of the Air Loop HVAC systems did not appear to converge
   **   ~~~   ** Air System Named = CENTRAL SYSTEM did not converge for mass flow rate
   **   ~~~   ** Check values should be zero. Most Recent values listed first.
   **   ~~~   ** Demand-to-Supply interface mass flow rate check value iteration history trace: 7.395596E-002,7.395596E-002,7.395596E-002,7.395596E-002,7.395596E-002,7.395596E-002,7.395596E-002,7.395596E-002,7.395596E-002,7.395596E-002,
   **   ~~~   ** Supply-to-demand interface deck 1 mass flow rate check value iteration history trace: 7.395596E-002,7.395596E-002,7.395596E-002,7.395596E-002,7.395596E-002,7.395596E-002,7.395596E-002,7.395596E-002,7.395596E-002,7.395596E-002,
   **   ~~~   ** Air System Named = CENTRAL SYSTEM did not converge for energy
   **   ~~~   ** Check values should be zero. Most Recent values listed first.
   **   ~~~   ** Demand-to-Supply interface energy check value iteration history trace: 1465.665726,1465.665726,1465.665726,1465.665726,1465.665726,1465.665726,1465.665726,1465.665726,1465.665726,1465.665726,
   **   ~~~   ** Supply-to-demand interface deck 1 energy check value iteration history trace: 2331.307269,2331.307269,2331.307269,2331.307268,2331.307268,2331.307268,2331.307268,2331.307268,2331.307268,2331.307268,
   ** Warning ** SimHVAC: Maximum iterations (20) exceeded for all HVAC loops, at ANNUAL, 03/29 13:26 - 13:30
   **   ~~~   ** The solution for one or more of the Air Loop HVAC systems did not appear to converge
   **   ~~~   ** Air System Named = CENTRAL SYSTEM did not converge for mass flow rate
   **   ~~~   ** Check values should be zero. Most Recent values listed first.
   **   ~~~   ** Demand-to-Supply interface mass flow rate check value iteration history trace: 5.319957E-002,5.319957E-002,5.319957E-002,5.319957E-002,5.319957E-002,5.319957E-002,5.319957E-002,5.319957E-002,5.319957E-002,5.319957E-002,
   **   ~~~   ** Supply-to-demand interface deck 1 mass flow rate check value iteration history trace: 5.319957E-002,5.319957E-002,5.319957E-002,5.319957E-002,5.319957E-002,5.319957E-002,5.319957E-002,5.319957E-002,5.319957E-002,5.319957E-002,
   **   ~~~   ** Air System Named = CENTRAL SYSTEM did not converge for energy
   **   ~~~   ** Check values should be zero. Most Recent values listed first.
   **   ~~~   ** Demand-to-Supply interface energy check value iteration history trace: 1046.809989,1046.809989,1046.809989,1046.809989,1046.809989,1046.809989,1046.809989,1046.809989,1046.809989,1046.809989,
   **   ~~~   ** Supply-to-demand interface deck 1 energy check value iteration history trace: 1776.117626,1776.117626,1776.117626,1776.117625,1776.117625,1776.117625,1776.117625,1776.117625,1776.117625,1776.117625,
   ** Warning ** SimHVAC: Maximum iterations (20) exceeded for all HVAC loops, at ANNUAL, 04/16 09:20 - 09:22
   **   ~~~   ** The solution for one or more of the Air Loop HVAC systems did not appear to converge
   **   ~~~   ** Air System Named = CENTRAL SYSTEM did not converge for mass flow rate
   **   ~~~   ** Check values should be zero. Most Recent values listed first.
   **   ~~~   ** Demand-to-Supply interface mass flow rate check value iteration history trace: 0.101184,0.101184,0.101184,0.101184,0.101184,0.101184,0.101184,0.101184,0.101184,0.101184,
   **   ~~~   ** Supply-to-demand interface deck 1 mass flow rate check value iteration history trace: 0.101184,0.101184,0.101184,0.101184,0.101184,0.101184,0.101184,0.101184,0.101184,0.101184,
   **   ~~~   ** Air System Named = CENTRAL SYSTEM did not converge for energy
   **   ~~~   ** Check values should be zero. Most Recent values listed first.
   **   ~~~   ** Demand-to-Supply interface energy check value iteration history trace: 2005.175944,2005.175944,2005.175944,2005.175943,2005.175943,2005.175943,2005.175943,2005.175943,2005.175943,2005.175943,
   **   ~~~   ** Supply-to-demand interface deck 1 energy check value iteration history trace: 3147.578845,3147.578844,3147.578844,3147.578844,3147.578844,3147.578844,3147.578843,3147.578843,3147.578843,3147.578843,
   ** Warning ** SimHVAC: Maximum iterations (20) exceeded for all HVAC loops, at ANNUAL, 05/10 06:53 - 07:00
   **   ~~~   ** The solution for one or more of the Air Loop HVAC systems did not appear to converge
   **   ~~~   ** Air System Named = CENTRAL SYSTEM did not converge for mass flow rate
   **   ~~~   ** Check values should be zero. Most Recent values listed first.
   **   ~~~   ** Demand-to-Supply interface mass flow rate check value iteration history trace: 0.223429,0.223429,0.223429,0.223429,0.223429,0.223429,0.223429,0.223429,0.223429,0.223429,
   **   ~~~   ** Supply-to-demand interface deck 1 mass flow rate check value iteration history trace: 0.223429,0.223429,0.223429,0.223429,0.223429,0.223429,0.223429,0.223429,0.223429,0.223429,
   **   ~~~   ** Air System Named = CENTRAL SYSTEM did not converge for energy
   **   ~~~   ** Check values should be zero. Most Recent values listed first.
   **   ~~~   ** Demand-to-Supply interface energy check value iteration history trace: 5343.567686,5343.567687,5343.567687,5343.567688,5343.567688,5343.567688,5343.567689,5343.567689,5343.567690,5343.567690,
   **   ~~~   ** Supply-to-demand interface deck 1 energy check value iteration history trace: 3097.330139,3097.330140,3097.330140,3097.330140,3097.330140,3097.330141,3097.330141,3097.330141,3097.330141,3097.330141,
   ** Warning ** SimHVAC: Maximum iterations (20) exceeded for all HVAC loops, at ANNUAL, 10/22 20:08 - 20:15
   **   ~~~   ** The solution for one or more of the Air Loop HVAC systems did not appear to converge
   **   ~~~   ** Air System Named = CENTRAL SYSTEM did not converge for mass flow rate
   **   ~~~   ** Check values should be zero. Most Recent values listed first.
   **   ~~~   ** Demand-to-Supply interface mass flow rate check value iteration history trace: 3.662995E-002,3.662995E-002,3.662995E-002,3.662995E-002,3.662995E-002,3.662995E-002,3.662995E-002,3.662995E-002,3.662995E-002,3.662995E-002,
   **   ~~~   ** Supply-to-demand interface deck 1 mass flow rate check value iteration history trace: 3.662995E-002,3.662995E-002,3.662995E-002,3.662995E-002,3.662995E-002,3.662995E-002,3.662995E-002,3.662995E-002,3.662995E-002,3.662995E-002,
   **   ~~~   ** Air System Named = CENTRAL SYSTEM did not converge for energy
   **   ~~~   ** Check values should be zero. Most Recent values listed first.
   **   ~~~   ** Demand-to-Supply interface energy check value iteration history trace: 865.661063,865.661063,865.661063,865.661063,865.661063,865.661063,865.661063,865.661063,865.661063,865.661063,
   **   ~~~   ** Supply-to-demand interface deck 1 energy check value iteration history trace: 342.103689,342.103689,342.103689,342.103689,342.103689,342.103689,342.103689,342.103689,342.103689,342.103689,
   ** Warning ** SimHVAC: Maximum iterations (20) exceeded for all HVAC loops, at ANNUAL, 11/05 09:05 - 09:10
   **   ~~~   ** The solution for one or more of the Air Loop HVAC systems did not appear to converge
   **   ~~~   ** Air System Named = CENTRAL SYSTEM did not converge for mass flow rate
   **   ~~~   ** Check values should be zero. Most Recent values listed first.
   **   ~~~   ** Demand-to-Supply interface mass flow rate check value iteration history trace: 6.471400E-002,6.471400E-002,6.471400E-002,6.471400E-002,6.471400E-002,6.471400E-002,6.471400E-002,6.471400E-002,6.471400E-002,6.471400E-002,
   **   ~~~   ** Supply-to-demand interface deck 1 mass flow rate check value iteration history trace: 6.471400E-002,6.471400E-002,6.471400E-002,6.471400E-002,6.471400E-002,6.471400E-002,6.471400E-002,6.471400E-002,6.471400E-002,6.471400E-002,
   **   ~~~   ** Air System Named = CENTRAL SYSTEM did not converge for energy
   **   ~~~   ** Check values should be zero. Most Recent values listed first.
   **   ~~~   ** Demand-to-Supply interface energy check value iteration history trace: 1278.221966,1278.221965,1278.221965,1278.221965,1278.221965,1278.221965,1278.221965,1278.221965,1278.221965,1278.221965,
   **   ~~~   ** Supply-to-demand interface deck 1 energy check value iteration history trace: 2292.556539,2292.556539,2292.556539,2292.556539,2292.556539,2292.556539,2292.556538,2292.556538,2292.556538,2292.556538,
   ************* Simulation Error Summary *************
   ** Warning ** The following Report Variables were requested but not generated -- check.rdd file
   **   ~~~   ** Either the IDF did not contain these elements, the variable name is misspelled,
   **   ~~~   ** or the requested variable is an advanced output which requires Output : Diagnostics, DisplayAdvancedReportVariables;
   ************* Key=*, VarName=BASEBOARD TOTAL HEATING ENERGY, Frequency=
   ************* Key=*, VarName=WATER HEATER NATURALGAS ENERGY, Frequency=
   ************* Key=*, VarName=COOLING COIL TOTAL HEATING ENERGY, Frequency=
   ************* There are 34 unused schedules in input.
   ************* There are 388 unused week schedules in input.
   ************* There are 396 unused day schedules in input.
   ************* Use Output:Diagnostics,DisplayUnusedSchedules; to see them.
   *************
   ************* ===== Recurring Error Summary =====
   ************* The following recurring error messages occurred.
   *************
   *************  ** Warning ** "TOTAL HOT WATER LOAD" - Target water temperature should be less than or equal to the hot water temperature error continues...
   *************  **   ~~~   **   This error occurred 152365 total times;
   *************  **   ~~~   **   during Warmup 0 times;
   *************  **   ~~~   **   during Sizing 0 times.
   *************  **   ~~~   **   Max=13.50731  Min=7.627335E-004
   *************
   *************  ** Warning ** SimHVAC: Exceeding Maximum iterations for all HVAC loops, during ANNUAL continues
   *************  **   ~~~   **   This error occurred 6 total times;
   *************  **   ~~~   **   during Warmup 0 times;
   *************  **   ~~~   **   during Sizing 0 times.
   *************
   *************
   ************* ===== Final Error Summary =====
   ************* The following error categories occurred.  Consider correcting or noting.
   ************* Nominally Unused Constructions
   ************* ..The nominally unused constructions warning is provided to alert you to potential conditions that can cause
   ************* ..extra time during simulation. Each construction is calculated by the algorithm indicated in the HeatBalanceAlgorithm
   ************* ..object. You may remove the constructions indicated (when you use the DisplayExtraWarnings option).
   *************
   ************* EnergyPlus Warmup Error Summary. During Warmup: 1 Warning; 0 Severe Errors.
   ************* EnergyPlus Sizing Error Summary. During Sizing: 4 Warning; 0 Severe Errors.
   ************* EnergyPlus Completed Successfully-- 152403 Warning; 0 Severe Errors; Elapsed Time=00hr 01min 34.11sec
