Program Version,EnergyPlus, Version 22.2.0-c249759bad, YMD=2023.09.01 19:54,
   ************* Beginning Zone Sizing Calculations
   ** Warning ** ProcessScheduleInput: Schedule:Constant="ALWAYS ON DISCRETE", Schedule Type Limits Name="ONOFF" not found -- will not be validated
   ** Warning ** Foundation:Kiva="KIVA FOUNDATION", no Interior Horizontal Insulation Material Name defined
   **   ~~~   ** Interior Horizontal Insulation Depth will not be used.
   ** Warning ** CheckUsedConstructions: There are 15 nominally unused constructions in input.
   **   ~~~   ** Each Unused construction is shown.
   ************* Construction=INTERIOR FLOOR
   ************* Construction=INTERIOR WINDOW
   ************* Construction=EXTERIOR DOOR
   ************* Construction=INTERIOR DOOR
   ************* Construction=GABLE CONSTRUCTION
   ************* Construction=CRAWL_FLOOR
   ************* Construction=INSULATED PIPE
   ************* Construction=PLAIN PIPE
   ************* Construction=TDD PIPE
   ************* Construction=TDD DOME
   ************* Construction=TDD DIFFUSER
   ************* Construction=CRAWL WALL
   ************* Construction=CEILING-FLOOR-LAYER
   ************* Construction=SLAB CONSTRUCTION W FULL R10 INSULATION
   ************* Construction=SLAB CONSTRUCTION W FULL R5 INSULATION
   ** Warning ** GetDXCoils: Coil:Heating:DX:SingleSpeed="DX_HEATING_COIL" curve values
   **   ~~~   ** ... Defrost Energy Input Ratio Function of Temperature Curve Name = DEFROSTEIR output is not equal to 1.0 (+ or - 10%) at rated conditions.
   **   ~~~   ** ... Curve output at rated conditions = 0.152
   ************* Beginning System Sizing Calculations
   ************* Beginning Plant Sizing Calculations
   ** Warning ** SizeDXCoil Coil:Cooling:DX:SingleSpeed DX_COOLING_COIL
   **   ~~~   ** ...Gross Rated Total Cooling Capacity [W] will be limited by the maximum rated volume flow per rated total capacity ratio.
   **   ~~~   ** ...DX coil volume flow rate ( m3/s ) = 0.491679
   **   ~~~   ** ...Requested capacity ( W ) = 7993.951
   **   ~~~   ** ...Requested flow/capacity ratio ( m3/s/W ) = 6.150E-005
   **   ~~~   ** ...Maximum flow/capacity ratio ( m3/s/W ) = 6.041E-005
   **   ~~~   ** ...Adjusted capacity ( W ) = 8139.045
   ** Warning ** Coil:WaterHeating:AirToWaterHeatPump:Wrapped "HEAT PUMP WATER HEATER EVAPORATOR": Rated air volume flow rate per watt of rated total water heating capacity is out of range
   **   ~~~   ** Min Rated Vol Flow Per Watt=[4.027E-005], Rated Vol Flow Per Watt=[1.510E-004], Max Rated Vol Flow Per Watt=[8.056E-005]. See Input-Output Reference Manual for valid range.
   ************* SizeFan: : Potential issue with equipment sizing for Fan:OnOff HEAT PUMP WATER HEATER FAN
   **   ~~~   ** User-Specified Maximum Flow Rate [m3/s] = 0.22653
   **   ~~~   ** differs from Design Size Maximum Flow Rate [m3/s] = 7.55250E-002
   **   ~~~   ** This may, or may not, indicate mismatched component sizes.
   **   ~~~   ** Verify that the value entered is intended and is consistent with other components.
   ** Warning ** Water heater = WATER HEATER TANK:  Recovery Efficiency and Energy Factor could not be calculated during the test for standard ratings
   **   ~~~   ** Setpoint was never recovered and/or heater never turned on
   ** Warning ** Check input. Pump nominal power or motor efficiency is set to 0, for pump=MAINS PRESSURE
   ** Warning ** Output:Meter: invalid Key Name="ELECTRIC_RANGE:INTERIOREQUIPMENT:ELECTRICITY" - not found.
   ** Warning ** Output:Meter: invalid Key Name="ELECTRIC_DRYER:INTERIOREQUIPMENT:ELECTRICITY" - not found.
   ** Warning ** Output:Meter: invalid Key Name="HEATRECOVERY:ELECTRICITY" - not found.
   ** Warning ** Output:Meter: invalid Key Name="HEATING:NATURALGAS" - not found.
   ** Warning ** Output:Meter: invalid Key Name="WATERSYSTEMS:NATURALGAS" - not found.
   ** Warning ** Output:Meter: invalid Key Name="PROPANE:FACILITY" - not found.
   ** Warning ** Output:Meter: invalid Key Name="HEATING:PROPANE" - not found.
   ************* Testing Individual Branch Integrity
   ************* All Branches passed integrity testing
   ************* Testing Individual Supply Air Path Integrity
   ************* All Supply Air Paths passed integrity testing
   ************* Testing Individual Return Air Path Integrity
   ************* All Return Air Paths passed integrity testing
   ************* No node connection errors were found.
   ************* Beginning Simulation
   ** Warning ** AirflowNetwork::Solver::validate_distribution: Heat pump water heater is simulated along with an AirflowNetwork but is not included in the AirflowNetwork.
   ** Warning ** CalcEquipmentFlowRates: "TOTAL HOT WATER LOAD" - Target water temperature is greater than the hot water temperature by (1.20 C)
   **   ~~~   **  Environment=EXTREME_WINTER, at Simulation time=01/29 06:00 - 06:15
   **   ~~~   ** ...target water temperature     = 53.33 C
   **   ~~~   ** ...hot water temperature        = 52.14 C
   **   ~~~   ** ...Target water temperature should be less than or equal to the hot water temperature. Verify temperature setpoints and schedules.
   ** Warning ** SimHVAC: Maximum iterations (20) exceeded for all HVAC loops, at EXTREME_WINTER, 02/04 11:15 - 11:20
   **   ~~~   ** The solution for one or more of the Air Loop HVAC systems did not appear to converge
   **   ~~~   ** Air System Named = CENTRAL SYSTEM did not converge for mass flow rate
   **   ~~~   ** Check values should be zero. Most Recent values listed first.
   **   ~~~   ** Demand-to-Supply interface mass flow rate check value iteration history trace: 8.815121E-002,8.815121E-002,8.815121E-002,8.815121E-002,8.815121E-002,8.815121E-002,8.815121E-002,8.815121E-002,8.815121E-002,8.815121E-002,
   **   ~~~   ** Supply-to-demand interface deck 1 mass flow rate check value iteration history trace: 8.815121E-002,8.815121E-002,8.815121E-002,8.815121E-002,8.815121E-002,8.815121E-002,8.815121E-002,8.815121E-002,8.815121E-002,8.815121E-002,
   **   ~~~   ** Air System Named = CENTRAL SYSTEM did not converge for energy
   **   ~~~   ** Check values should be zero. Most Recent values listed first.
   **   ~~~   ** Demand-to-Supply interface energy check value iteration history trace: 1746.833502,1746.833502,1746.833502,1746.833501,1746.833501,1746.833501,1746.833501,1746.833501,1746.833501,1746.833501,
   **   ~~~   ** Supply-to-demand interface deck 1 energy check value iteration history trace: 2694.690391,2694.690391,2694.690391,2694.690390,2694.690390,2694.690390,2694.690390,2694.690390,2694.690389,2694.690389,
   ** Warning ** SimHVAC: Maximum iterations (20) exceeded for all HVAC loops, at ANNUAL, 01/03 18:00 - 18:08
   **   ~~~   ** The solution for one or more of the Air Loop HVAC systems did not appear to converge
   **   ~~~   ** Air System Named = CENTRAL SYSTEM did not converge for mass flow rate
   **   ~~~   ** Check values should be zero. Most Recent values listed first.
   **   ~~~   ** Demand-to-Supply interface mass flow rate check value iteration history trace: 7.006254E-002,7.006254E-002,7.006254E-002,7.006254E-002,7.006254E-002,7.006254E-002,7.006254E-002,7.006254E-002,7.006254E-002,7.006254E-002,
   **   ~~~   ** Supply-to-demand interface deck 1 mass flow rate check value iteration history trace: 7.006254E-002,7.006254E-002,7.006254E-002,7.006254E-002,7.006254E-002,7.006254E-002,7.006254E-002,7.006254E-002,7.006254E-002,7.006254E-002,
   **   ~~~   ** Air System Named = CENTRAL SYSTEM did not converge for energy
   **   ~~~   ** Check values should be zero. Most Recent values listed first.
   **   ~~~   ** Demand-to-Supply interface energy check value iteration history trace: 1388.260086,1388.260085,1388.260085,1388.260085,1388.260085,1388.260085,1388.260085,1388.260085,1388.260085,1388.260085,
   **   ~~~   ** Supply-to-demand interface deck 1 energy check value iteration history trace: 2366.956131,2366.956131,2366.956131,2366.956131,2366.956131,2366.956130,2366.956130,2366.956130,2366.956130,2366.956130,
   ** Warning ** SimHVAC: Maximum iterations (20) exceeded for all HVAC loops, at ANNUAL, 01/07 02:30 - 02:35
   **   ~~~   ** The solution for one or more of the Air Loop HVAC systems did not appear to converge
   **   ~~~   ** Air System Named = CENTRAL SYSTEM did not converge for mass flow rate
   **   ~~~   ** Check values should be zero. Most Recent values listed first.
   **   ~~~   ** Demand-to-Supply interface mass flow rate check value iteration history trace: 9.024853E-002,9.024853E-002,9.024853E-002,9.024853E-002,9.024853E-002,9.024853E-002,9.024853E-002,9.024853E-002,9.024853E-002,9.024853E-002,
   **   ~~~   ** Supply-to-demand interface deck 1 mass flow rate check value iteration history trace: 9.024853E-002,9.024853E-002,9.024853E-002,9.024853E-002,9.024853E-002,9.024853E-002,9.024853E-002,9.024853E-002,9.024853E-002,9.024853E-002,
   **   ~~~   ** Air System Named = CENTRAL SYSTEM did not converge for energy
   **   ~~~   ** Check values should be zero. Most Recent values listed first.
   **   ~~~   ** Demand-to-Supply interface energy check value iteration history trace: 1723.274983,1723.274983,1723.274983,1723.274983,1723.274983,1723.274983,1723.274983,1723.274982,1723.274982,1723.274982,
   **   ~~~   ** Supply-to-demand interface deck 1 energy check value iteration history trace: 2584.490301,2584.490301,2584.490301,2584.490300,2584.490300,2584.490300,2584.490300,2584.490300,2584.490300,2584.490299,
   ** Warning ** SimHVAC: Maximum iterations (20) exceeded for all HVAC loops, at ANNUAL, 01/08 12:23 - 12:30
   **   ~~~   ** The solution for one or more of the Air Loop HVAC systems did not appear to converge
   **   ~~~   ** Air System Named = CENTRAL SYSTEM did not converge for mass flow rate
   **   ~~~   ** Check values should be zero. Most Recent values listed first.
   **   ~~~   ** Demand-to-Supply interface mass flow rate check value iteration history trace: 5.220063E-002,5.220063E-002,5.220063E-002,5.220063E-002,5.220063E-002,5.220063E-002,5.220063E-002,5.220063E-002,5.220063E-002,5.220063E-002,
   **   ~~~   ** Supply-to-demand interface deck 1 mass flow rate check value iteration history trace: 5.220063E-002,5.220063E-002,5.220063E-002,5.220063E-002,5.220063E-002,5.220063E-002,5.220063E-002,5.220063E-002,5.220063E-002,5.220063E-002,
   **   ~~~   ** Air System Named = CENTRAL SYSTEM did not converge for energy
   **   ~~~   ** Check values should be zero. Most Recent values listed first.
   **   ~~~   ** Demand-to-Supply interface energy check value iteration history trace: 1029.602170,1029.602170,1029.602170,1029.602170,1029.602170,1029.602170,1029.602170,1029.602170,1029.602170,1029.602170,
   **   ~~~   ** Supply-to-demand interface deck 1 energy check value iteration history trace: 1832.659194,1832.659194,1832.659194,1832.659194,1832.659194,1832.659194,1832.659194,1832.659194,1832.659194,1832.659194,
   ** Warning ** SimHVAC: Maximum iterations (20) exceeded for all HVAC loops, at ANNUAL, 01/31 08:45 - 08:48
   **   ~~~   ** The solution for one or more of the Air Loop HVAC systems did not appear to converge
   **   ~~~   ** Air System Named = CENTRAL SYSTEM did not converge for mass flow rate
   **   ~~~   ** Check values should be zero. Most Recent values listed first.
   **   ~~~   ** Demand-to-Supply interface mass flow rate check value iteration history trace: 5.783946E-002,5.783946E-002,5.783946E-002,5.783946E-002,5.783946E-002,5.783946E-002,5.783946E-002,5.783946E-002,5.783946E-002,5.783946E-002,
   **   ~~~   ** Supply-to-demand interface deck 1 mass flow rate check value iteration history trace: 5.783946E-002,5.783946E-002,5.783946E-002,5.783946E-002,5.783946E-002,5.783946E-002,5.783946E-002,5.783946E-002,5.783946E-002,5.783946E-002,
   **   ~~~   ** Air System Named = CENTRAL SYSTEM did not converge for energy
   **   ~~~   ** Check values should be zero. Most Recent values listed first.
   **   ~~~   ** Demand-to-Supply interface energy check value iteration history trace: 1146.176730,1146.176730,1146.176730,1146.176730,1146.176730,1146.176730,1146.176730,1146.176730,1146.176730,1146.176730,
   **   ~~~   ** Supply-to-demand interface deck 1 energy check value iteration history trace: 2001.476320,2001.476319,2001.476319,2001.476319,2001.476319,2001.476319,2001.476319,2001.476319,2001.476319,2001.476319,
   ** Warning ** SimHVAC: Maximum iterations (20) exceeded for all HVAC loops, at ANNUAL, 02/07 08:30 - 08:45
   **   ~~~   ** The solution for one or more of the Air Loop HVAC systems did not appear to converge
   **   ~~~   ** Air System Named = CENTRAL SYSTEM did not converge for mass flow rate
   **   ~~~   ** Check values should be zero. Most Recent values listed first.
   **   ~~~   ** Demand-to-Supply interface mass flow rate check value iteration history trace: 6.403396E-002,6.403396E-002,6.403396E-002,6.403396E-002,6.403396E-002,6.403396E-002,6.403396E-002,6.403396E-002,6.403396E-002,6.403396E-002,
   **   ~~~   ** Supply-to-demand interface deck 1 mass flow rate check value iteration history trace: 6.403396E-002,6.403396E-002,6.403396E-002,6.403396E-002,6.403396E-002,6.403396E-002,6.403396E-002,6.403396E-002,6.403396E-002,6.403396E-002,
   **   ~~~   ** Air System Named = CENTRAL SYSTEM did not converge for energy
   **   ~~~   ** Check values should be zero. Most Recent values listed first.
   **   ~~~   ** Demand-to-Supply interface energy check value iteration history trace: 1268.875048,1268.875048,1268.875048,1268.875048,1268.875048,1268.875048,1268.875048,1268.875048,1268.875048,1268.875048,
   **   ~~~   ** Supply-to-demand interface deck 1 energy check value iteration history trace: 2165.784737,2165.784737,2165.784737,2165.784737,2165.784737,2165.784737,2165.784737,2165.784736,2165.784736,2165.784736,
   ** Warning ** SimHVAC: Maximum iterations (20) exceeded for all HVAC loops, at ANNUAL, 03/05 07:38 - 07:45
   **   ~~~   ** The solution for one or more of the Air Loop HVAC systems did not appear to converge
   **   ~~~   ** Air System Named = CENTRAL SYSTEM did not converge for mass flow rate
   **   ~~~   ** Check values should be zero. Most Recent values listed first.
   **   ~~~   ** Demand-to-Supply interface mass flow rate check value iteration history trace: 7.316080E-002,7.316080E-002,7.316080E-002,7.316080E-002,7.316080E-002,7.316080E-002,7.316080E-002,7.316080E-002,7.316080E-002,7.316080E-002,
   **   ~~~   ** Supply-to-demand interface deck 1 mass flow rate check value iteration history trace: 7.316080E-002,7.316080E-002,7.316080E-002,7.316080E-002,7.316080E-002,7.316080E-002,7.316080E-002,7.316080E-002,7.316080E-002,7.316080E-002,
   **   ~~~   ** Air System Named = CENTRAL SYSTEM did not converge for energy
   **   ~~~   ** Check values should be zero. Most Recent values listed first.
   **   ~~~   ** Demand-to-Supply interface energy check value iteration history trace: 1733.285312,1733.285312,1733.285313,1733.285313,1733.285313,1733.285313,1733.285313,1733.285313,1733.285313,1733.285314,
   **   ~~~   ** Supply-to-demand interface deck 1 energy check value iteration history trace: 989.450619,989.450619,989.450619,989.450619,989.450620,989.450620,989.450620,989.450620,989.450620,989.450620,
   ** Warning ** SimHVAC: Maximum iterations (20) exceeded for all HVAC loops, at ANNUAL, 03/05 08:40 - 08:45
   **   ~~~   ** The solution for one or more of the Air Loop HVAC systems did not appear to converge
   **   ~~~   ** Air System Named = CENTRAL SYSTEM did not converge for mass flow rate
   **   ~~~   ** Check values should be zero. Most Recent values listed first.
   **   ~~~   ** Demand-to-Supply interface mass flow rate check value iteration history trace: 8.973355E-002,8.973355E-002,8.973355E-002,8.973355E-002,8.973355E-002,8.973355E-002,8.973355E-002,8.973355E-002,8.973355E-002,8.973355E-002,
   **   ~~~   ** Supply-to-demand interface deck 1 mass flow rate check value iteration history trace: 8.973355E-002,8.973355E-002,8.973355E-002,8.973355E-002,8.973355E-002,8.973355E-002,8.973355E-002,8.973355E-002,8.973355E-002,8.973355E-002,
   **   ~~~   ** Air System Named = CENTRAL SYSTEM did not converge for energy
   **   ~~~   ** Check values should be zero. Most Recent values listed first.
   **   ~~~   ** Demand-to-Supply interface energy check value iteration history trace: 2119.879343,2119.879343,2119.879343,2119.879344,2119.879344,2119.879344,2119.879344,2119.879344,2119.879345,2119.879345,
   **   ~~~   ** Supply-to-demand interface deck 1 energy check value iteration history trace: 1196.109222,1196.109222,1196.109222,1196.109222,1196.109222,1196.109222,1196.109222,1196.109222,1196.109223,1196.109223,
   ** Warning ** SimHVAC: Maximum iterations (20) exceeded for all HVAC loops, at ANNUAL, 03/06 00:00 - 00:15
   **   ~~~   ** The solution for one or more of the Air Loop HVAC systems did not appear to converge
   **   ~~~   ** Air System Named = CENTRAL SYSTEM did not converge for mass flow rate
   **   ~~~   ** Check values should be zero. Most Recent values listed first.
   **   ~~~   ** Demand-to-Supply interface mass flow rate check value iteration history trace: 8.984641E-002,8.984641E-002,8.984641E-002,8.984641E-002,8.984641E-002,8.984641E-002,8.984641E-002,8.984641E-002,8.984641E-002,8.984641E-002,
   **   ~~~   ** Supply-to-demand interface deck 1 mass flow rate check value iteration history trace: 8.984641E-002,8.984641E-002,8.984641E-002,8.984641E-002,8.984641E-002,8.984641E-002,8.984641E-002,8.984641E-002,8.984641E-002,8.984641E-002,
   **   ~~~   ** Air System Named = CENTRAL SYSTEM did not converge for energy
   **   ~~~   ** Check values should be zero. Most Recent values listed first.
   **   ~~~   ** Demand-to-Supply interface energy check value iteration history trace: 2243.203741,2243.203741,2243.203741,2243.203741,2243.203741,2243.203741,2243.203742,2243.203742,2243.203742,2243.203742,
   **   ~~~   ** Supply-to-demand interface deck 1 energy check value iteration history trace: 1244.913105,1244.913105,1244.913105,1244.913105,1244.913105,1244.913106,1244.913106,1244.913106,1244.913106,1244.913106,
   ** Warning ** SimHVAC: Maximum iterations (20) exceeded for all HVAC loops, at ANNUAL, 03/15 09:15 - 09:30
   **   ~~~   ** The solution for one or more of the Air Loop HVAC systems did not appear to converge
   **   ~~~   ** Air System Named = CENTRAL SYSTEM did not converge for mass flow rate
   **   ~~~   ** Check values should be zero. Most Recent values listed first.
   **   ~~~   ** Demand-to-Supply interface mass flow rate check value iteration history trace: 5.171197E-002,5.171197E-002,5.171197E-002,5.171197E-002,5.171197E-002,5.171197E-002,5.171197E-002,5.171197E-002,5.171197E-002,5.171197E-002,
   **   ~~~   ** Supply-to-demand interface deck 1 mass flow rate check value iteration history trace: 5.171197E-002,5.171197E-002,5.171197E-002,5.171197E-002,5.171197E-002,5.171197E-002,5.171197E-002,5.171197E-002,5.171197E-002,5.171197E-002,
   **   ~~~   ** Air System Named = CENTRAL SYSTEM did not converge for energy
   **   ~~~   ** Check values should be zero. Most Recent values listed first.
   **   ~~~   ** Demand-to-Supply interface energy check value iteration history trace: 1016.562071,1016.562071,1016.562071,1016.562071,1016.562071,1016.562071,1016.562071,1016.562071,1016.562071,1016.562071,
   **   ~~~   ** Supply-to-demand interface deck 1 energy check value iteration history trace: 1793.669726,1793.669726,1793.669726,1793.669726,1793.669726,1793.669726,1793.669726,1793.669726,1793.669725,1793.669725,
   ** Warning ** SimHVAC: Maximum iterations (20) exceeded for all HVAC loops, at ANNUAL, 03/20 22:30 - 22:38
   **   ~~~   ** The solution for one or more of the Air Loop HVAC systems did not appear to converge
   **   ~~~   ** Air System Named = CENTRAL SYSTEM did not converge for mass flow rate
   **   ~~~   ** Check values should be zero. Most Recent values listed first.
   **   ~~~   ** Demand-to-Supply interface mass flow rate check value iteration history trace: 4.877651E-002,4.877651E-002,4.877651E-002,4.877651E-002,4.877651E-002,4.877651E-002,4.877651E-002,4.877651E-002,4.877651E-002,4.877651E-002,
   **   ~~~   ** Supply-to-demand interface deck 1 mass flow rate check value iteration history trace: 4.877651E-002,4.877651E-002,4.877651E-002,4.877651E-002,4.877651E-002,4.877651E-002,4.877651E-002,4.877651E-002,4.877651E-002,4.877651E-002,
   **   ~~~   ** Air System Named = CENTRAL SYSTEM did not converge for energy
   **   ~~~   ** Check values should be zero. Most Recent values listed first.
   **   ~~~   ** Demand-to-Supply interface energy check value iteration history trace: 1196.267432,1196.267432,1196.267432,1196.267432,1196.267432,1196.267433,1196.267433,1196.267433,1196.267433,1196.267433,
   **   ~~~   ** Supply-to-demand interface deck 1 energy check value iteration history trace: 557.437422,557.437423,557.437423,557.437423,557.437423,557.437423,557.437423,557.437423,557.437423,557.437423,
   ** Warning ** SimHVAC: Maximum iterations (20) exceeded for all HVAC loops, at ANNUAL, 12/16 19:50 - 19:55
   **   ~~~   ** The solution for one or more of the Air Loop HVAC systems did not appear to converge
   **   ~~~   ** Air System Named = CENTRAL SYSTEM did not converge for mass flow rate
   **   ~~~   ** Check values should be zero. Most Recent values listed first.
   **   ~~~   ** Demand-to-Supply interface mass flow rate check value iteration history trace: 0.121425,0.121425,0.121425,0.121425,0.121425,0.121425,0.121425,0.121425,0.121425,0.121425,
   **   ~~~   ** Supply-to-demand interface deck 1 mass flow rate check value iteration history trace: 0.121425,0.121425,0.121425,0.121425,0.121425,0.121425,0.121425,0.121425,0.121425,0.121425,
   **   ~~~   ** Air System Named = CENTRAL SYSTEM did not converge for energy
   **   ~~~   ** Check values should be zero. Most Recent values listed first.
   **   ~~~   ** Demand-to-Supply interface energy check value iteration history trace: 2870.001119,2870.001119,2870.001119,2870.001120,2870.001120,2870.001120,2870.001120,2870.001120,2870.001120,2870.001121,
   **   ~~~   ** Supply-to-demand interface deck 1 energy check value iteration history trace: 1032.768650,1032.768650,1032.768650,1032.768650,1032.768650,1032.768651,1032.768651,1032.768651,1032.768651,1032.768651,
   ** Warning ** SimHVAC: Maximum iterations (20) exceeded for all HVAC loops, at ANNUAL, 12/23 19:45 - 20:00
   **   ~~~   ** The solution for one or more of the Air Loop HVAC systems did not appear to converge
   **   ~~~   ** Air System Named = CENTRAL SYSTEM did not converge for mass flow rate
   **   ~~~   ** Check values should be zero. Most Recent values listed first.
   **   ~~~   ** Demand-to-Supply interface mass flow rate check value iteration history trace: 1.940829E-002,1.940829E-002,1.940829E-002,1.940829E-002,1.940829E-002,1.940829E-002,1.940829E-002,1.940829E-002,1.940829E-002,1.940829E-002,
   **   ~~~   ** Supply-to-demand interface deck 1 mass flow rate check value iteration history trace: 1.940829E-002,1.940829E-002,1.940829E-002,1.940829E-002,1.940829E-002,1.940829E-002,1.940829E-002,1.940829E-002,1.940829E-002,1.940829E-002,
   **   ~~~   ** Air System Named = CENTRAL SYSTEM did not converge for energy
   **   ~~~   ** Check values should be zero. Most Recent values listed first.
   **   ~~~   ** Demand-to-Supply interface energy check value iteration history trace: 460.450962,460.450962,460.450962,460.450962,460.450962,460.450962,460.450962,460.450962,460.450963,460.450963,
   **   ~~~   ** Supply-to-demand interface deck 1 energy check value iteration history trace: 170.451212,170.451212,170.451212,170.451212,170.451212,170.451212,170.451212,170.451212,170.451212,170.451212,
   ** Warning ** SimHVAC: Maximum iterations (20) exceeded for all HVAC loops, at ANNUAL, 12/23 21:00 - 21:15
   **   ~~~   ** The solution for one or more of the Air Loop HVAC systems did not appear to converge
   **   ~~~   ** Air System Named = CENTRAL SYSTEM did not converge for mass flow rate
   **   ~~~   ** Check values should be zero. Most Recent values listed first.
   **   ~~~   ** Demand-to-Supply interface mass flow rate check value iteration history trace: 4.539708E-002,4.539709E-002,4.539709E-002,4.539709E-002,4.539709E-002,4.539709E-002,4.539709E-002,4.539709E-002,4.539709E-002,4.539709E-002,
   **   ~~~   ** Supply-to-demand interface deck 1 mass flow rate check value iteration history trace: 4.539708E-002,4.539709E-002,4.539709E-002,4.539709E-002,4.539709E-002,4.539709E-002,4.539709E-002,4.539709E-002,4.539709E-002,4.539709E-002,
   **   ~~~   ** Air System Named = CENTRAL SYSTEM did not converge for energy
   **   ~~~   ** Check values should be zero. Most Recent values listed first.
   **   ~~~   ** Demand-to-Supply interface energy check value iteration history trace: 1078.994329,1078.994329,1078.994329,1078.994329,1078.994329,1078.994329,1078.994330,1078.994330,1078.994330,1078.994330,
   **   ~~~   ** Supply-to-demand interface deck 1 energy check value iteration history trace: 399.619646,399.619646,399.619646,399.619646,399.619646,399.619646,399.619646,399.619646,399.619646,399.619647,
   ************* Simulation Error Summary *************
   ** Warning ** The following Report Variables were requested but not generated -- check.rdd file
   **   ~~~   ** Either the IDF did not contain these elements, the variable name is misspelled,
   **   ~~~   ** or the requested variable is an advanced output which requires Output : Diagnostics, DisplayAdvancedReportVariables;
   ************* Key=*, VarName=BASEBOARD TOTAL HEATING ENERGY, Frequency=
   ************* Key=*, VarName=WATER HEATER NATURALGAS ENERGY, Frequency=
   ************* Key=*, VarName=COOLING COIL TOTAL HEATING ENERGY, Frequency=
   ************* There are 34 unused schedules in input.
   ************* There are 388 unused week schedules in input.
   ************* There are 396 unused day schedules in input.
   ************* Use Output:Diagnostics,DisplayUnusedSchedules; to see them.
   *************
   ************* ===== Recurring Error Summary =====
   ************* The following recurring error messages occurred.
   *************
   *************  ** Warning ** "TOTAL HOT WATER LOAD" - Target water temperature should be less than or equal to the hot water temperature error continues...
   *************  **   ~~~   **   This error occurred 130317 total times;
   *************  **   ~~~   **   during Warmup 0 times;
   *************  **   ~~~   **   during Sizing 0 times.
   *************  **   ~~~   **   Max=10.624246  Min=2.937216E-004
   *************
   *************
   ************* ===== Final Error Summary =====
   ************* The following error categories occurred.  Consider correcting or noting.
   ************* Nominally Unused Constructions
   ************* ..The nominally unused constructions warning is provided to alert you to potential conditions that can cause
   ************* ..extra time during simulation. Each construction is calculated by the algorithm indicated in the HeatBalanceAlgorithm
   ************* ..object. You may remove the constructions indicated (when you use the DisplayExtraWarnings option).
   *************
   ************* EnergyPlus Warmup Error Summary. During Warmup: 1 Warning; 0 Severe Errors.
   ************* EnergyPlus Sizing Error Summary. During Sizing: 4 Warning; 0 Severe Errors.
   ************* EnergyPlus Completed Successfully-- 130349 Warning; 0 Severe Errors; Elapsed Time=00hr 01min 43.47sec
