Program Version,EnergyPlus, Version 22.2.0-c249759bad, YMD=2023.09.01 14:56,
   ************* Beginning Zone Sizing Calculations
   ** Warning ** ProcessScheduleInput: Schedule:Constant="ALWAYS ON DISCRETE", Schedule Type Limits Name="ONOFF" not found -- will not be validated
   ** Warning ** Foundation:Kiva="KIVA FOUNDATION", no Interior Horizontal Insulation Material Name defined
   **   ~~~   ** Interior Horizontal Insulation Depth will not be used.
   ** Warning ** CheckUsedConstructions: There are 15 nominally unused constructions in input.
   **   ~~~   ** Each Unused construction is shown.
   ************* Construction=INTERIOR FLOOR
   ************* Construction=INTERIOR WINDOW
   ************* Construction=EXTERIOR DOOR
   ************* Construction=INTERIOR DOOR
   ************* Construction=GABLE CONSTRUCTION
   ************* Construction=CRAWL_FLOOR
   ************* Construction=INSULATED PIPE
   ************* Construction=PLAIN PIPE
   ************* Construction=TDD PIPE
   ************* Construction=TDD DOME
   ************* Construction=TDD DIFFUSER
   ************* Construction=CRAWL WALL
   ************* Construction=CEILING-FLOOR-LAYER
   ************* Construction=SLAB CONSTRUCTION W FULL R10 INSULATION
   ************* Construction=SLAB CONSTRUCTION W FULL R5 INSULATION
   ** Warning ** GetDXCoils: Coil:Heating:DX:SingleSpeed="DX_HEATING_COIL" curve values
   **   ~~~   ** ... Defrost Energy Input Ratio Function of Temperature Curve Name = DEFROSTEIR output is not equal to 1.0 (+ or - 10%) at rated conditions.
   **   ~~~   ** ... Curve output at rated conditions = 0.152
   ************* Beginning System Sizing Calculations
   ************* Beginning Plant Sizing Calculations
   ** Warning ** SizeDXCoil Coil:Cooling:DX:SingleSpeed DX_COOLING_COIL
   **   ~~~   ** ...Gross Rated Total Cooling Capacity [W] will be limited by the maximum rated volume flow per rated total capacity ratio.
   **   ~~~   ** ...DX coil volume flow rate ( m3/s ) = 0.427402
   **   ~~~   ** ...Requested capacity ( W ) = 6647.991
   **   ~~~   ** ...Requested flow/capacity ratio ( m3/s/W ) = 6.429E-005
   **   ~~~   ** ...Maximum flow/capacity ratio ( m3/s/W ) = 6.041E-005
   **   ~~~   ** ...Adjusted capacity ( W ) = 7075.024
   ** Warning ** Coil:WaterHeating:AirToWaterHeatPump:Wrapped "HEAT PUMP WATER HEATER EVAPORATOR": Rated air volume flow rate per watt of rated total water heating capacity is out of range
   **   ~~~   ** Min Rated Vol Flow Per Watt=[4.027E-005], Rated Vol Flow Per Watt=[1.386E-004], Max Rated Vol Flow Per Watt=[8.056E-005]. See Input-Output Reference Manual for valid range.
   ** Warning ** Water heater = WATER HEATER TANK:  Recovery Efficiency and Energy Factor could not be calculated during the test for standard ratings
   **   ~~~   ** Setpoint was never recovered and/or heater never turned on
   ** Warning ** Check input. Pump nominal power or motor efficiency is set to 0, for pump=MAINS PRESSURE
   ** Warning ** Output:Meter: invalid Key Name="ELECTRIC_RANGE:INTERIOREQUIPMENT:ELECTRICITY" - not found.
   ** Warning ** Output:Meter: invalid Key Name="ELECTRIC_DRYER:INTERIOREQUIPMENT:ELECTRICITY" - not found.
   ** Warning ** Output:Meter: invalid Key Name="HEATRECOVERY:ELECTRICITY" - not found.
   ** Warning ** Output:Meter: invalid Key Name="HEATING:NATURALGAS" - not found.
   ** Warning ** Output:Meter: invalid Key Name="WATERSYSTEMS:NATURALGAS" - not found.
   ** Warning ** Output:Meter: invalid Key Name="PROPANE:FACILITY" - not found.
   ** Warning ** Output:Meter: invalid Key Name="HEATING:PROPANE" - not found.
   ************* Testing Individual Branch Integrity
   ************* All Branches passed integrity testing
   ************* Testing Individual Supply Air Path Integrity
   ************* All Supply Air Paths passed integrity testing
   ************* Testing Individual Return Air Path Integrity
   ************* All Return Air Paths passed integrity testing
   ************* No node connection errors were found.
   ************* Beginning Simulation
   ** Warning ** AirflowNetwork::Solver::validate_distribution: Heat pump water heater is simulated along with an AirflowNetwork but is not included in the AirflowNetwork.
   ** Warning ** CalcEquipmentFlowRates: "TOTAL HOT WATER LOAD" - Target water temperature is greater than the hot water temperature by (1.65 C)
   **   ~~~   **  Environment=EXTREME_WINTER, at Simulation time=01/06 06:00 - 06:15
   **   ~~~   ** ...target water temperature     = 53.33 C
   **   ~~~   ** ...hot water temperature        = 51.69 C
   **   ~~~   ** ...Target water temperature should be less than or equal to the hot water temperature. Verify temperature setpoints and schedules.
   ** Warning ** SimHVAC: Maximum iterations (20) exceeded for all HVAC loops, at ANNUAL, 01/14 18:25 - 18:30
   **   ~~~   ** The solution for one or more of the Air Loop HVAC systems did not appear to converge
   **   ~~~   ** Air System Named = CENTRAL SYSTEM did not converge for mass flow rate
   **   ~~~   ** Check values should be zero. Most Recent values listed first.
   **   ~~~   ** Demand-to-Supply interface mass flow rate check value iteration history trace: 0.110756,0.110756,0.110756,0.110756,0.110756,0.110756,0.110756,0.110756,0.110756,0.110756,
   **   ~~~   ** Supply-to-demand interface deck 1 mass flow rate check value iteration history trace: 0.110756,0.110756,0.110756,0.110756,0.110756,0.110756,0.110756,0.110756,0.110756,0.110756,
   **   ~~~   ** Air System Named = CENTRAL SYSTEM did not converge for energy
   **   ~~~   ** Check values should be zero. Most Recent values listed first.
   **   ~~~   ** Demand-to-Supply interface energy check value iteration history trace: 2188.435349,2188.435349,2188.435348,2188.435348,2188.435348,2188.435348,2188.435348,2188.435348,2188.435347,2188.435347,
   **   ~~~   ** Supply-to-demand interface deck 1 energy check value iteration history trace: 3256.594339,3256.594338,3256.594338,3256.594338,3256.594338,3256.594337,3256.594337,3256.594337,3256.594337,3256.594336,
   ** Warning ** SimHVAC: Maximum iterations (20) exceeded for all HVAC loops, at ANNUAL, 01/28 19:10 - 19:15
   **   ~~~   ** The solution for one or more of the Air Loop HVAC systems did not appear to converge
   **   ~~~   ** Air System Named = CENTRAL SYSTEM did not converge for mass flow rate
   **   ~~~   ** Check values should be zero. Most Recent values listed first.
   **   ~~~   ** Demand-to-Supply interface mass flow rate check value iteration history trace: 0.101257,0.101257,0.101257,0.101257,0.101257,0.101257,0.101257,0.101257,0.101257,0.101257,
   **   ~~~   ** Supply-to-demand interface deck 1 mass flow rate check value iteration history trace: 0.101257,0.101257,0.101257,0.101257,0.101257,0.101257,0.101257,0.101257,0.101257,0.101257,
   **   ~~~   ** Air System Named = CENTRAL SYSTEM did not converge for energy
   **   ~~~   ** Check values should be zero. Most Recent values listed first.
   **   ~~~   ** Demand-to-Supply interface energy check value iteration history trace: 1991.466926,1991.466926,1991.466926,1991.466926,1991.466925,1991.466925,1991.466925,1991.466925,1991.466925,1991.466925,
   **   ~~~   ** Supply-to-demand interface deck 1 energy check value iteration history trace: 3085.133427,3085.133427,3085.133427,3085.133426,3085.133426,3085.133426,3085.133426,3085.133426,3085.133425,3085.133425,
   ** Warning ** SimHVAC: Maximum iterations (20) exceeded for all HVAC loops, at ANNUAL, 02/05 21:45 - 22:00
   **   ~~~   ** The solution for one or more of the Air Loop HVAC systems did not appear to converge
   **   ~~~   ** Air System Named = CENTRAL SYSTEM did not converge for mass flow rate
   **   ~~~   ** Check values should be zero. Most Recent values listed first.
   **   ~~~   ** Demand-to-Supply interface mass flow rate check value iteration history trace: 9.374516E-002,9.374516E-002,9.374516E-002,9.374516E-002,9.374516E-002,9.374516E-002,9.374516E-002,9.374516E-002,9.374516E-002,9.374516E-002,
   **   ~~~   ** Supply-to-demand interface deck 1 mass flow rate check value iteration history trace: 9.374516E-002,9.374516E-002,9.374516E-002,9.374516E-002,9.374516E-002,9.374516E-002,9.374516E-002,9.374516E-002,9.374516E-002,9.374516E-002,
   **   ~~~   ** Air System Named = CENTRAL SYSTEM did not converge for energy
   **   ~~~   ** Check values should be zero. Most Recent values listed first.
   **   ~~~   ** Demand-to-Supply interface energy check value iteration history trace: 1858.857815,1858.857815,1858.857815,1858.857815,1858.857815,1858.857814,1858.857814,1858.857814,1858.857814,1858.857814,
   **   ~~~   ** Supply-to-demand interface deck 1 energy check value iteration history trace: 2859.593879,2859.593879,2859.593879,2859.593879,2859.593879,2859.593879,2859.593878,2859.593878,2859.593878,2859.593878,
   ** Warning ** SimHVAC: Maximum iterations (20) exceeded for all HVAC loops, at ANNUAL, 02/13 20:30 - 20:45
   **   ~~~   ** The solution for one or more of the Air Loop HVAC systems did not appear to converge
   **   ~~~   ** Air System Named = CENTRAL SYSTEM did not converge for mass flow rate
   **   ~~~   ** Check values should be zero. Most Recent values listed first.
   **   ~~~   ** Demand-to-Supply interface mass flow rate check value iteration history trace: 5.809560E-002,5.809560E-002,5.809560E-002,5.809560E-002,5.809560E-002,5.809560E-002,5.809560E-002,5.809560E-002,5.809560E-002,5.809560E-002,
   **   ~~~   ** Supply-to-demand interface deck 1 mass flow rate check value iteration history trace: 5.809560E-002,5.809560E-002,5.809560E-002,5.809560E-002,5.809560E-002,5.809560E-002,5.809560E-002,5.809560E-002,5.809560E-002,5.809560E-002,
   **   ~~~   ** Air System Named = CENTRAL SYSTEM did not converge for energy
   **   ~~~   ** Check values should be zero. Most Recent values listed first.
   **   ~~~   ** Demand-to-Supply interface energy check value iteration history trace: 1141.846668,1141.846668,1141.846668,1141.846668,1141.846668,1141.846668,1141.846668,1141.846667,1141.846667,1141.846667,
   **   ~~~   ** Supply-to-demand interface deck 1 energy check value iteration history trace: 1712.462338,1712.462337,1712.462337,1712.462337,1712.462337,1712.462337,1712.462337,1712.462337,1712.462337,1712.462337,
   ** Warning ** SimHVAC: Maximum iterations (20) exceeded for all HVAC loops, at ANNUAL, 03/09 17:23 - 17:30
   **   ~~~   ** The solution for one or more of the Air Loop HVAC systems did not appear to converge
   **   ~~~   ** Air System Named = CENTRAL SYSTEM did not converge for energy
   **   ~~~   ** Check values should be zero. Most Recent values listed first.
   **   ~~~   ** Demand-to-Supply interface energy check value iteration history trace: 64.470536,64.470536,64.470536,64.470536,64.470536,64.470536,64.470536,64.470536,64.470536,64.470536,
   **   ~~~   ** Supply-to-demand interface deck 1 energy check value iteration history trace: 116.142454,116.142454,116.142454,116.142454,116.142454,116.142454,116.142454,116.142454,116.142454,116.142454,
   ** Warning ** SimHVAC: Maximum iterations (20) exceeded for all HVAC loops, at ANNUAL, 03/19 08:45 - 09:00
   **   ~~~   ** The solution for one or more of the Air Loop HVAC systems did not appear to converge
   **   ~~~   ** Air System Named = CENTRAL SYSTEM did not converge for mass flow rate
   **   ~~~   ** Check values should be zero. Most Recent values listed first.
   **   ~~~   ** Demand-to-Supply interface mass flow rate check value iteration history trace: 8.101780E-002,8.101780E-002,8.101780E-002,8.101780E-002,8.101780E-002,8.101780E-002,8.101780E-002,8.101780E-002,8.101780E-002,8.101780E-002,
   **   ~~~   ** Supply-to-demand interface deck 1 mass flow rate check value iteration history trace: 8.101780E-002,8.101780E-002,8.101780E-002,8.101780E-002,8.101780E-002,8.101780E-002,8.101780E-002,8.101780E-002,8.101780E-002,8.101780E-002,
   **   ~~~   ** Air System Named = CENTRAL SYSTEM did not converge for energy
   **   ~~~   ** Check values should be zero. Most Recent values listed first.
   **   ~~~   ** Demand-to-Supply interface energy check value iteration history trace: 1601.888966,1601.888966,1601.888966,1601.888966,1601.888966,1601.888966,1601.888966,1601.888966,1601.888966,1601.888966,
   **   ~~~   ** Supply-to-demand interface deck 1 energy check value iteration history trace: 2801.664249,2801.664249,2801.664249,2801.664249,2801.664249,2801.664249,2801.664249,2801.664248,2801.664248,2801.664248,
   ** Warning ** Temperature out of range [-100. to 200.] (PsyPsatFnTemp)
   **   ~~~   **  Routine=PsyTwbFnTdbWPb, Environment=ANNUAL, at Simulation time=03/28 20:15 - 20:19
   **   ~~~   **  Input Temperature=-320.55
   ** Warning ** SimHVAC: Maximum iterations (20) exceeded for all HVAC loops, at ANNUAL, 04/01 08:45 - 09:00
   **   ~~~   ** The solution for one or more of the Air Loop HVAC systems did not appear to converge
   **   ~~~   ** Air System Named = CENTRAL SYSTEM did not converge for mass flow rate
   **   ~~~   ** Check values should be zero. Most Recent values listed first.
   **   ~~~   ** Demand-to-Supply interface mass flow rate check value iteration history trace: 6.223279E-002,6.223279E-002,6.223279E-002,6.223279E-002,6.223279E-002,6.223279E-002,6.223279E-002,6.223279E-002,6.223279E-002,6.223279E-002,
   **   ~~~   ** Supply-to-demand interface deck 1 mass flow rate check value iteration history trace: 6.223279E-002,6.223279E-002,6.223279E-002,6.223279E-002,6.223279E-002,6.223279E-002,6.223279E-002,6.223279E-002,6.223279E-002,6.223279E-002,
   **   ~~~   ** Air System Named = CENTRAL SYSTEM did not converge for energy
   **   ~~~   ** Check values should be zero. Most Recent values listed first.
   **   ~~~   ** Demand-to-Supply interface energy check value iteration history trace: 1230.872133,1230.872133,1230.872133,1230.872133,1230.872133,1230.872133,1230.872133,1230.872133,1230.872133,1230.872133,
   **   ~~~   ** Supply-to-demand interface deck 1 energy check value iteration history trace: 2275.464163,2275.464163,2275.464163,2275.464163,2275.464163,2275.464163,2275.464163,2275.464163,2275.464163,2275.464162,
   ** Warning ** SimHVAC: Maximum iterations (20) exceeded for all HVAC loops, at ANNUAL, 04/22 09:15 - 09:30
   **   ~~~   ** The solution for one or more of the Air Loop HVAC systems did not appear to converge
   **   ~~~   ** Air System Named = CENTRAL SYSTEM did not converge for mass flow rate
   **   ~~~   ** Check values should be zero. Most Recent values listed first.
   **   ~~~   ** Demand-to-Supply interface mass flow rate check value iteration history trace: 7.643385E-002,7.643385E-002,7.643385E-002,7.643385E-002,7.643385E-002,7.643385E-002,7.643385E-002,7.643385E-002,7.643385E-002,7.643385E-002,
   **   ~~~   ** Supply-to-demand interface deck 1 mass flow rate check value iteration history trace: 7.643385E-002,7.643385E-002,7.643385E-002,7.643385E-002,7.643385E-002,7.643385E-002,7.643385E-002,7.643385E-002,7.643385E-002,7.643385E-002,
   **   ~~~   ** Air System Named = CENTRAL SYSTEM did not converge for energy
   **   ~~~   ** Check values should be zero. Most Recent values listed first.
   **   ~~~   ** Demand-to-Supply interface energy check value iteration history trace: 1511.668196,1511.668196,1511.668196,1511.668196,1511.668196,1511.668196,1511.668196,1511.668195,1511.668195,1511.668195,
   **   ~~~   ** Supply-to-demand interface deck 1 energy check value iteration history trace: 2615.226714,2615.226714,2615.226714,2615.226713,2615.226713,2615.226713,2615.226713,2615.226713,2615.226713,2615.226713,
   ** Warning ** SimHVAC: Maximum iterations (20) exceeded for all HVAC loops, at ANNUAL, 04/23 07:30 - 07:45
   **   ~~~   ** The solution for one or more of the Air Loop HVAC systems did not appear to converge
   **   ~~~   ** Air System Named = CENTRAL SYSTEM did not converge for mass flow rate
   **   ~~~   ** Check values should be zero. Most Recent values listed first.
   **   ~~~   ** Demand-to-Supply interface mass flow rate check value iteration history trace: 7.371593E-002,7.371593E-002,7.371593E-002,7.371593E-002,7.371593E-002,7.371593E-002,7.371593E-002,7.371593E-002,7.371593E-002,7.371593E-002,
   **   ~~~   ** Supply-to-demand interface deck 1 mass flow rate check value iteration history trace: 7.371593E-002,7.371593E-002,7.371593E-002,7.371593E-002,7.371593E-002,7.371593E-002,7.371593E-002,7.371593E-002,7.371593E-002,7.371593E-002,
   **   ~~~   ** Air System Named = CENTRAL SYSTEM did not converge for energy
   **   ~~~   ** Check values should be zero. Most Recent values listed first.
   **   ~~~   ** Demand-to-Supply interface energy check value iteration history trace: 1460.357885,1460.357885,1460.357885,1460.357885,1460.357885,1460.357885,1460.357885,1460.357885,1460.357885,1460.357885,
   **   ~~~   ** Supply-to-demand interface deck 1 energy check value iteration history trace: 2540.879968,2540.879968,2540.879967,2540.879967,2540.879967,2540.879967,2540.879967,2540.879967,2540.879967,2540.879967,
   ** Warning ** SimHVAC: Maximum iterations (20) exceeded for all HVAC loops, at ANNUAL, 05/10 16:10 - 16:15
   **   ~~~   ** The solution for one or more of the Air Loop HVAC systems did not appear to converge
   **   ~~~   ** Air System Named = CENTRAL SYSTEM did not converge for mass flow rate
   **   ~~~   ** Check values should be zero. Most Recent values listed first.
   **   ~~~   ** Demand-to-Supply interface mass flow rate check value iteration history trace: 0.274171,0.274171,0.274171,0.274171,0.274171,0.274171,0.274171,0.274171,0.274171,0.274171,
   **   ~~~   ** Supply-to-demand interface deck 1 mass flow rate check value iteration history trace: 0.274171,0.274171,0.274171,0.274171,0.274171,0.274171,0.274171,0.274171,0.274171,0.274171,
   **   ~~~   ** Air System Named = CENTRAL SYSTEM did not converge for energy
   **   ~~~   ** Check values should be zero. Most Recent values listed first.
   **   ~~~   ** Demand-to-Supply interface energy check value iteration history trace: 6510.625506,6510.625507,6510.625509,6510.625510,6510.625512,6510.625513,6510.625514,6510.625516,6510.625517,6510.625519,
   **   ~~~   ** Supply-to-demand interface deck 1 energy check value iteration history trace: 3678.604125,3678.604126,3678.604127,3678.604128,3678.604129,3678.604129,3678.604130,3678.604131,3678.604132,3678.604133,
   ** Warning ** SimHVAC: Maximum iterations (20) exceeded for all HVAC loops, at ANNUAL, 10/28 20:08 - 20:15
   **   ~~~   ** The solution for one or more of the Air Loop HVAC systems did not appear to converge
   **   ~~~   ** Air System Named = CENTRAL SYSTEM did not converge for mass flow rate
   **   ~~~   ** Check values should be zero. Most Recent values listed first.
   **   ~~~   ** Demand-to-Supply interface mass flow rate check value iteration history trace: 0.181448,0.181448,0.181448,0.181448,0.181448,0.181448,0.181448,0.181448,0.181448,0.181448,
   **   ~~~   ** Supply-to-demand interface deck 1 mass flow rate check value iteration history trace: 0.181448,0.181448,0.181448,0.181448,0.181448,0.181448,0.181448,0.181448,0.181448,0.181448,
   **   ~~~   ** Air System Named = CENTRAL SYSTEM did not converge for energy
   **   ~~~   ** Check values should be zero. Most Recent values listed first.
   **   ~~~   ** Demand-to-Supply interface energy check value iteration history trace: 4298.962220,4298.962221,4298.962221,4298.962222,4298.962223,4298.962224,4298.962225,4298.962225,4298.962226,4298.962227,
   **   ~~~   ** Supply-to-demand interface deck 1 energy check value iteration history trace: 2205.364503,2205.364503,2205.364504,2205.364504,2205.364505,2205.364505,2205.364506,2205.364506,2205.364506,2205.364507,
   ** Warning ** SimHVAC: Maximum iterations (20) exceeded for all HVAC loops, at ANNUAL, 11/12 08:15 - 08:19
   **   ~~~   ** The solution for one or more of the Air Loop HVAC systems did not appear to converge
   **   ~~~   ** Air System Named = CENTRAL SYSTEM did not converge for mass flow rate
   **   ~~~   ** Check values should be zero. Most Recent values listed first.
   **   ~~~   ** Demand-to-Supply interface mass flow rate check value iteration history trace: 7.039732E-002,7.039732E-002,7.039732E-002,7.039732E-002,7.039732E-002,7.039732E-002,7.039732E-002,7.039732E-002,7.039732E-002,7.039732E-002,
   **   ~~~   ** Supply-to-demand interface deck 1 mass flow rate check value iteration history trace: 7.039732E-002,7.039732E-002,7.039732E-002,7.039732E-002,7.039732E-002,7.039732E-002,7.039732E-002,7.039732E-002,7.039732E-002,7.039732E-002,
   **   ~~~   ** Air System Named = CENTRAL SYSTEM did not converge for energy
   **   ~~~   ** Check values should be zero. Most Recent values listed first.
   **   ~~~   ** Demand-to-Supply interface energy check value iteration history trace: 1389.635419,1389.635419,1389.635419,1389.635418,1389.635418,1389.635418,1389.635418,1389.635418,1389.635418,1389.635418,
   **   ~~~   ** Supply-to-demand interface deck 1 energy check value iteration history trace: 2445.586523,2445.586523,2445.586523,2445.586523,2445.586523,2445.586523,2445.586523,2445.586523,2445.586523,2445.586523,
   ** Warning ** SimHVAC: Maximum iterations (20) exceeded for all HVAC loops, at ANNUAL, 12/02 19:45 - 20:00
   **   ~~~   ** The solution for one or more of the Air Loop HVAC systems did not appear to converge
   **   ~~~   ** Air System Named = CENTRAL SYSTEM did not converge for mass flow rate
   **   ~~~   ** Check values should be zero. Most Recent values listed first.
   **   ~~~   ** Demand-to-Supply interface mass flow rate check value iteration history trace: 5.487548E-002,5.487548E-002,5.487548E-002,5.487548E-002,5.487548E-002,5.487548E-002,5.487548E-002,5.487548E-002,5.487548E-002,5.487548E-002,
   **   ~~~   ** Supply-to-demand interface deck 1 mass flow rate check value iteration history trace: 5.487548E-002,5.487548E-002,5.487548E-002,5.487548E-002,5.487548E-002,5.487548E-002,5.487548E-002,5.487548E-002,5.487548E-002,5.487548E-002,
   **   ~~~   ** Air System Named = CENTRAL SYSTEM did not converge for energy
   **   ~~~   ** Check values should be zero. Most Recent values listed first.
   **   ~~~   ** Demand-to-Supply interface energy check value iteration history trace: 1085.773802,1085.773802,1085.773802,1085.773801,1085.773801,1085.773801,1085.773801,1085.773801,1085.773801,1085.773800,
   **   ~~~   ** Supply-to-demand interface deck 1 energy check value iteration history trace: 1993.647361,1993.647361,1993.647361,1993.647360,1993.647360,1993.647360,1993.647359,1993.647359,1993.647359,1993.647358,
   ** Warning ** SimHVAC: Maximum iterations (20) exceeded for all HVAC loops, at ANNUAL, 12/27 21:00 - 21:15
   **   ~~~   ** The solution for one or more of the Air Loop HVAC systems did not appear to converge
   **   ~~~   ** Air System Named = CENTRAL SYSTEM did not converge for mass flow rate
   **   ~~~   ** Check values should be zero. Most Recent values listed first.
   **   ~~~   ** Demand-to-Supply interface mass flow rate check value iteration history trace: 0.106072,0.106072,0.106072,0.106072,0.106072,0.106072,0.106072,0.106072,0.106072,0.106072,
   **   ~~~   ** Supply-to-demand interface deck 1 mass flow rate check value iteration history trace: 0.106072,0.106072,0.106072,0.106072,0.106072,0.106072,0.106072,0.106072,0.106072,0.106072,
   **   ~~~   ** Air System Named = CENTRAL SYSTEM did not converge for energy
   **   ~~~   ** Check values should be zero. Most Recent values listed first.
   **   ~~~   ** Demand-to-Supply interface energy check value iteration history trace: 2099.674676,2099.674676,2099.674676,2099.674676,2099.674676,2099.674676,2099.674675,2099.674675,2099.674675,2099.674675,
   **   ~~~   ** Supply-to-demand interface deck 1 energy check value iteration history trace: 3194.134680,3194.134680,3194.134680,3194.134680,3194.134679,3194.134679,3194.134679,3194.134679,3194.134678,3194.134678,
   ************* Simulation Error Summary *************
   ** Warning ** The following Report Variables were requested but not generated -- check.rdd file
   **   ~~~   ** Either the IDF did not contain these elements, the variable name is misspelled,
   **   ~~~   ** or the requested variable is an advanced output which requires Output : Diagnostics, DisplayAdvancedReportVariables;
   ************* Key=*, VarName=BASEBOARD TOTAL HEATING ENERGY, Frequency=
   ************* Key=*, VarName=WATER HEATER NATURALGAS ENERGY, Frequency=
   ************* Key=*, VarName=COOLING COIL TOTAL HEATING ENERGY, Frequency=
   ************* There are 34 unused schedules in input.
   ************* There are 388 unused week schedules in input.
   ************* There are 396 unused day schedules in input.
   ************* Use Output:Diagnostics,DisplayUnusedSchedules; to see them.
   *************
   ************* ===== Recurring Error Summary =====
   ************* The following recurring error messages occurred.
   *************
   *************  ** Warning ** "TOTAL HOT WATER LOAD" - Target water temperature should be less than or equal to the hot water temperature error continues...
   *************  **   ~~~   **   This error occurred 102577 total times;
   *************  **   ~~~   **   during Warmup 0 times;
   *************  **   ~~~   **   during Sizing 0 times.
   *************  **   ~~~   **   Max=9.590973  Min=5.794079E-005
   *************
   *************  ** Warning ** Temperature out of range [-100. to 200.] (PsyPsatFnTemp)
   *************  **   ~~~   **   This error occurred 1 total times;
   *************  **   ~~~   **   during Warmup 0 times;
   *************  **   ~~~   **   during Sizing 0 times.
   *************  **   ~~~   **   Max=-320.55658 C  Min=-320.55658 C
   *************
   *************
   ************* ===== Final Error Summary =====
   ************* The following error categories occurred.  Consider correcting or noting.
   ************* Nominally Unused Constructions
   ************* ..The nominally unused constructions warning is provided to alert you to potential conditions that can cause
   ************* ..extra time during simulation. Each construction is calculated by the algorithm indicated in the HeatBalanceAlgorithm
   ************* ..object. You may remove the constructions indicated (when you use the DisplayExtraWarnings option).
   *************
   ************* EnergyPlus Warmup Error Summary. During Warmup: 1 Warning; 0 Severe Errors.
   ************* EnergyPlus Sizing Error Summary. During Sizing: 4 Warning; 0 Severe Errors.
   ************* EnergyPlus Completed Successfully-- 102610 Warning; 0 Severe Errors; Elapsed Time=00hr 05min 37.62sec
