Program Version,EnergyPlus, Version 22.2.0-c249759bad, YMD=2023.09.01 19:18,
   ************* Beginning Zone Sizing Calculations
   ** Warning ** ProcessScheduleInput: Schedule:Constant="ALWAYS ON DISCRETE", Schedule Type Limits Name="ONOFF" not found -- will not be validated
   ** Warning ** Foundation:Kiva="KIVA FOUNDATION", no Interior Horizontal Insulation Material Name defined
   **   ~~~   ** Interior Horizontal Insulation Depth will not be used.
   ** Warning ** CheckUsedConstructions: There are 15 nominally unused constructions in input.
   **   ~~~   ** Each Unused construction is shown.
   ************* Construction=INTERIOR FLOOR
   ************* Construction=INTERIOR WINDOW
   ************* Construction=EXTERIOR DOOR
   ************* Construction=INTERIOR DOOR
   ************* Construction=GABLE CONSTRUCTION
   ************* Construction=CRAWL_FLOOR
   ************* Construction=INSULATED PIPE
   ************* Construction=PLAIN PIPE
   ************* Construction=TDD PIPE
   ************* Construction=TDD DOME
   ************* Construction=TDD DIFFUSER
   ************* Construction=CRAWL WALL
   ************* Construction=CEILING-FLOOR-LAYER
   ************* Construction=SLAB CONSTRUCTION W FULL R10 INSULATION
   ************* Construction=SLAB CONSTRUCTION W FULL R5 INSULATION
   ** Warning ** GetDXCoils: Coil:Heating:DX:SingleSpeed="DX_HEATING_COIL" curve values
   **   ~~~   ** ... Defrost Energy Input Ratio Function of Temperature Curve Name = DEFROSTEIR output is not equal to 1.0 (+ or - 10%) at rated conditions.
   **   ~~~   ** ... Curve output at rated conditions = 0.152
   ************* Beginning System Sizing Calculations
   ************* Beginning Plant Sizing Calculations
   ** Warning ** Coil:WaterHeating:AirToWaterHeatPump:Wrapped "HEAT PUMP WATER HEATER EVAPORATOR": Rated air volume flow rate per watt of rated total water heating capacity is out of range
   **   ~~~   ** Min Rated Vol Flow Per Watt=[4.027E-005], Rated Vol Flow Per Watt=[1.510E-004], Max Rated Vol Flow Per Watt=[8.056E-005]. See Input-Output Reference Manual for valid range.
   ************* SizeFan: : Potential issue with equipment sizing for Fan:OnOff HEAT PUMP WATER HEATER FAN
   **   ~~~   ** User-Specified Maximum Flow Rate [m3/s] = 0.22653
   **   ~~~   ** differs from Design Size Maximum Flow Rate [m3/s] = 7.55250E-002
   **   ~~~   ** This may, or may not, indicate mismatched component sizes.
   **   ~~~   ** Verify that the value entered is intended and is consistent with other components.
   ** Warning ** Water heater = WATER HEATER TANK:  Recovery Efficiency and Energy Factor could not be calculated during the test for standard ratings
   **   ~~~   ** Setpoint was never recovered and/or heater never turned on
   ** Warning ** Check input. Pump nominal power or motor efficiency is set to 0, for pump=MAINS PRESSURE
   ** Warning ** Output:Meter: invalid Key Name="ELECTRIC_RANGE:INTERIOREQUIPMENT:ELECTRICITY" - not found.
   ** Warning ** Output:Meter: invalid Key Name="ELECTRIC_DRYER:INTERIOREQUIPMENT:ELECTRICITY" - not found.
   ** Warning ** Output:Meter: invalid Key Name="HEATRECOVERY:ELECTRICITY" - not found.
   ** Warning ** Output:Meter: invalid Key Name="HEATING:NATURALGAS" - not found.
   ** Warning ** Output:Meter: invalid Key Name="WATERSYSTEMS:NATURALGAS" - not found.
   ** Warning ** Output:Meter: invalid Key Name="PROPANE:FACILITY" - not found.
   ** Warning ** Output:Meter: invalid Key Name="HEATING:PROPANE" - not found.
   ************* Testing Individual Branch Integrity
   ************* All Branches passed integrity testing
   ************* Testing Individual Supply Air Path Integrity
   ************* All Supply Air Paths passed integrity testing
   ************* Testing Individual Return Air Path Integrity
   ************* All Return Air Paths passed integrity testing
   ************* No node connection errors were found.
   ************* Beginning Simulation
   ** Warning ** AirflowNetwork::Solver::validate_distribution: Heat pump water heater is simulated along with an AirflowNetwork but is not included in the AirflowNetwork.
   ** Warning ** CalcEquipmentFlowRates: "TOTAL HOT WATER LOAD" - Target water temperature is greater than the hot water temperature by (1.46 C)
   **   ~~~   **  Environment=EXTREME_WINTER, at Simulation time=01/06 06:45 - 07:00
   **   ~~~   ** ...target water temperature     = 53.33 C
   **   ~~~   ** ...hot water temperature        = 51.87 C
   **   ~~~   ** ...Target water temperature should be less than or equal to the hot water temperature. Verify temperature setpoints and schedules.
   ** Warning ** SimHVAC: Maximum iterations (20) exceeded for all HVAC loops, at EXTREME_WINTER, 01/07 04:45 - 04:52
   **   ~~~   ** The solution for one or more of the Air Loop HVAC systems did not appear to converge
   **   ~~~   ** Air System Named = CENTRAL SYSTEM did not converge for mass flow rate
   **   ~~~   ** Check values should be zero. Most Recent values listed first.
   **   ~~~   ** Demand-to-Supply interface mass flow rate check value iteration history trace: 5.461575E-002,5.461575E-002,5.461575E-002,5.461575E-002,5.461575E-002,5.461575E-002,5.461575E-002,5.461575E-002,5.461575E-002,5.461575E-002,
   **   ~~~   ** Supply-to-demand interface deck 1 mass flow rate check value iteration history trace: 5.461575E-002,5.461575E-002,5.461575E-002,5.461575E-002,5.461575E-002,5.461575E-002,5.461575E-002,5.461575E-002,5.461575E-002,5.461575E-002,
   **   ~~~   ** Air System Named = CENTRAL SYSTEM did not converge for energy
   **   ~~~   ** Check values should be zero. Most Recent values listed first.
   **   ~~~   ** Demand-to-Supply interface energy check value iteration history trace: 1021.452575,1021.452575,1021.452574,1021.452574,1021.452574,1021.452574,1021.452574,1021.452574,1021.452574,1021.452574,
   **   ~~~   ** Supply-to-demand interface deck 1 energy check value iteration history trace: 1838.369432,1838.369432,1838.369432,1838.369432,1838.369432,1838.369431,1838.369431,1838.369431,1838.369431,1838.369431,
   ** Warning ** SimHVAC: Maximum iterations (20) exceeded for all HVAC loops, at ANNUAL, 01/03 10:30 - 10:45
   **   ~~~   ** The solution for one or more of the Air Loop HVAC systems did not appear to converge
   **   ~~~   ** Air System Named = CENTRAL SYSTEM did not converge for mass flow rate
   **   ~~~   ** Check values should be zero. Most Recent values listed first.
   **   ~~~   ** Demand-to-Supply interface mass flow rate check value iteration history trace: 4.583885E-002,4.583885E-002,4.583885E-002,4.583885E-002,4.583885E-002,4.583885E-002,4.583885E-002,4.583885E-002,4.583885E-002,4.583885E-002,
   **   ~~~   ** Supply-to-demand interface deck 1 mass flow rate check value iteration history trace: 4.583885E-002,4.583885E-002,4.583885E-002,4.583885E-002,4.583885E-002,4.583885E-002,4.583885E-002,4.583885E-002,4.583885E-002,4.583885E-002,
   **   ~~~   ** Air System Named = CENTRAL SYSTEM did not converge for energy
   **   ~~~   ** Check values should be zero. Most Recent values listed first.
   **   ~~~   ** Demand-to-Supply interface energy check value iteration history trace: 899.587122,899.587122,899.587122,899.587122,899.587122,899.587122,899.587122,899.587122,899.587122,899.587122,
   **   ~~~   ** Supply-to-demand interface deck 1 energy check value iteration history trace: 1732.373540,1732.373540,1732.373540,1732.373540,1732.373540,1732.373540,1732.373540,1732.373540,1732.373540,1732.373540,
   ** Warning ** SimHVAC: Maximum iterations (20) exceeded for all HVAC loops, at ANNUAL, 01/12 02:45 - 03:00
   **   ~~~   ** The solution for one or more of the Air Loop HVAC systems did not appear to converge
   **   ~~~   ** Air System Named = CENTRAL SYSTEM did not converge for mass flow rate
   **   ~~~   ** Check values should be zero. Most Recent values listed first.
   **   ~~~   ** Demand-to-Supply interface mass flow rate check value iteration history trace: 3.899358E-002,3.899358E-002,3.899358E-002,3.899358E-002,3.899358E-002,3.899358E-002,3.899358E-002,3.899358E-002,3.899358E-002,3.899358E-002,
   **   ~~~   ** Supply-to-demand interface deck 1 mass flow rate check value iteration history trace: 3.899358E-002,3.899358E-002,3.899358E-002,3.899358E-002,3.899358E-002,3.899358E-002,3.899358E-002,3.899358E-002,3.899358E-002,3.899358E-002,
   **   ~~~   ** Air System Named = CENTRAL SYSTEM did not converge for energy
   **   ~~~   ** Check values should be zero. Most Recent values listed first.
   **   ~~~   ** Demand-to-Supply interface energy check value iteration history trace: 723.624297,723.624297,723.624297,723.624297,723.624297,723.624297,723.624297,723.624297,723.624297,723.624297,
   **   ~~~   ** Supply-to-demand interface deck 1 energy check value iteration history trace: 1362.308673,1362.308673,1362.308673,1362.308673,1362.308673,1362.308673,1362.308673,1362.308673,1362.308673,1362.308673,
   ** Warning ** SimHVAC: Maximum iterations (20) exceeded for all HVAC loops, at ANNUAL, 03/14 11:04 - 11:08
   **   ~~~   ** The solution for one or more of the Air Loop HVAC systems did not appear to converge
   **   ~~~   ** Air System Named = CENTRAL SYSTEM did not converge for mass flow rate
   **   ~~~   ** Check values should be zero. Most Recent values listed first.
   **   ~~~   ** Demand-to-Supply interface mass flow rate check value iteration history trace: 5.447129E-002,5.447129E-002,5.447129E-002,5.447129E-002,5.447129E-002,5.447129E-002,5.447129E-002,5.447129E-002,5.447129E-002,5.447129E-002,
   **   ~~~   ** Supply-to-demand interface deck 1 mass flow rate check value iteration history trace: 5.447129E-002,5.447129E-002,5.447129E-002,5.447129E-002,5.447129E-002,5.447129E-002,5.447129E-002,5.447129E-002,5.447129E-002,5.447129E-002,
   **   ~~~   ** Air System Named = CENTRAL SYSTEM did not converge for energy
   **   ~~~   ** Check values should be zero. Most Recent values listed first.
   **   ~~~   ** Demand-to-Supply interface energy check value iteration history trace: 1079.489070,1079.489070,1079.489070,1079.489070,1079.489069,1079.489069,1079.489069,1079.489069,1079.489069,1079.489069,
   **   ~~~   ** Supply-to-demand interface deck 1 energy check value iteration history trace: 1961.092054,1961.092054,1961.092053,1961.092053,1961.092053,1961.092053,1961.092053,1961.092053,1961.092053,1961.092053,
   ** Warning ** SimHVAC: Maximum iterations (20) exceeded for all HVAC loops, at ANNUAL, 03/15 10:05 - 10:10
   **   ~~~   ** The solution for one or more of the Air Loop HVAC systems did not appear to converge
   **   ~~~   ** Air System Named = CENTRAL SYSTEM did not converge for mass flow rate
   **   ~~~   ** Check values should be zero. Most Recent values listed first.
   **   ~~~   ** Demand-to-Supply interface mass flow rate check value iteration history trace: 4.293599E-002,4.293599E-002,4.293599E-002,4.293599E-002,4.293599E-002,4.293599E-002,4.293599E-002,4.293599E-002,4.293599E-002,4.293599E-002,
   **   ~~~   ** Supply-to-demand interface deck 1 mass flow rate check value iteration history trace: 4.293599E-002,4.293599E-002,4.293599E-002,4.293599E-002,4.293599E-002,4.293599E-002,4.293599E-002,4.293599E-002,4.293599E-002,4.293599E-002,
   **   ~~~   ** Air System Named = CENTRAL SYSTEM did not converge for energy
   **   ~~~   ** Check values should be zero. Most Recent values listed first.
   **   ~~~   ** Demand-to-Supply interface energy check value iteration history trace: 843.696992,843.696992,843.696992,843.696992,843.696992,843.696992,843.696992,843.696992,843.696992,843.696992,
   **   ~~~   ** Supply-to-demand interface deck 1 energy check value iteration history trace: 1609.978169,1609.978169,1609.978169,1609.978169,1609.978169,1609.978169,1609.978169,1609.978169,1609.978169,1609.978169,
   ** Warning ** SimHVAC: Maximum iterations (20) exceeded for all HVAC loops, at ANNUAL, 11/30 17:38 - 17:41
   **   ~~~   ** The solution for one or more of the Air Loop HVAC systems did not appear to converge
   **   ~~~   ** Air System Named = CENTRAL SYSTEM did not converge for mass flow rate
   **   ~~~   ** Check values should be zero. Most Recent values listed first.
   **   ~~~   ** Demand-to-Supply interface mass flow rate check value iteration history trace: 0.125192,0.125192,0.125192,0.125192,0.125192,0.125192,0.125192,0.125192,0.125192,0.125192,
   **   ~~~   ** Supply-to-demand interface deck 1 mass flow rate check value iteration history trace: 0.125192,0.125192,0.125192,0.125192,0.125192,0.125192,0.125192,0.125192,0.125192,0.125192,
   **   ~~~   ** Air System Named = CENTRAL SYSTEM did not converge for energy
   **   ~~~   ** Check values should be zero. Most Recent values listed first.
   **   ~~~   ** Demand-to-Supply interface energy check value iteration history trace: 2953.683486,2953.683486,2953.683486,2953.683487,2953.683487,2953.683487,2953.683487,2953.683487,2953.683487,2953.683488,
   **   ~~~   ** Supply-to-demand interface deck 1 energy check value iteration history trace: 986.360407,986.360407,986.360407,986.360407,986.360407,986.360407,986.360407,986.360408,986.360408,986.360408,
   ** Warning ** SimHVAC: Maximum iterations (20) exceeded for all HVAC loops, at ANNUAL, 11/30 18:20 - 18:25
   **   ~~~   ** The solution for one or more of the Air Loop HVAC systems did not appear to converge
   **   ~~~   ** Air System Named = CENTRAL SYSTEM did not converge for mass flow rate
   **   ~~~   ** Check values should be zero. Most Recent values listed first.
   **   ~~~   ** Demand-to-Supply interface mass flow rate check value iteration history trace: 9.415277E-002,9.415277E-002,9.415277E-002,9.415277E-002,9.415277E-002,9.415277E-002,9.415277E-002,9.415277E-002,9.415277E-002,9.415277E-002,
   **   ~~~   ** Supply-to-demand interface deck 1 mass flow rate check value iteration history trace: 9.415277E-002,9.415277E-002,9.415277E-002,9.415277E-002,9.415277E-002,9.415277E-002,9.415277E-002,9.415277E-002,9.415277E-002,9.415277E-002,
   **   ~~~   ** Air System Named = CENTRAL SYSTEM did not converge for energy
   **   ~~~   ** Check values should be zero. Most Recent values listed first.
   **   ~~~   ** Demand-to-Supply interface energy check value iteration history trace: 2221.260667,2221.260667,2221.260668,2221.260668,2221.260668,2221.260668,2221.260668,2221.260668,2221.260668,2221.260668,
   **   ~~~   ** Supply-to-demand interface deck 1 energy check value iteration history trace: 741.811301,741.811301,741.811301,741.811301,741.811302,741.811302,741.811302,741.811302,741.811302,741.811302,
   ** Warning ** SimHVAC: Maximum iterations (20) exceeded for all HVAC loops, at ANNUAL, 12/18 09:34 - 09:36
   **   ~~~   ** The solution for one or more of the Air Loop HVAC systems did not appear to converge
   **   ~~~   ** Air System Named = CENTRAL SYSTEM did not converge for mass flow rate
   **   ~~~   ** Check values should be zero. Most Recent values listed first.
   **   ~~~   ** Demand-to-Supply interface mass flow rate check value iteration history trace: 5.137172E-002,5.137172E-002,5.137172E-002,5.137172E-002,5.137172E-002,5.137172E-002,5.137172E-002,5.137172E-002,5.137172E-002,5.137172E-002,
   **   ~~~   ** Supply-to-demand interface deck 1 mass flow rate check value iteration history trace: 5.137172E-002,5.137172E-002,5.137172E-002,5.137172E-002,5.137172E-002,5.137172E-002,5.137172E-002,5.137172E-002,5.137172E-002,5.137172E-002,
   **   ~~~   ** Air System Named = CENTRAL SYSTEM did not converge for energy
   **   ~~~   ** Check values should be zero. Most Recent values listed first.
   **   ~~~   ** Demand-to-Supply interface energy check value iteration history trace: 1014.426899,1014.426899,1014.426899,1014.426899,1014.426899,1014.426899,1014.426899,1014.426899,1014.426899,1014.426898,
   **   ~~~   ** Supply-to-demand interface deck 1 energy check value iteration history trace: 1878.213706,1878.213706,1878.213706,1878.213706,1878.213706,1878.213706,1878.213706,1878.213706,1878.213706,1878.213706,
   ** Warning ** SimHVAC: Maximum iterations (20) exceeded for all HVAC loops, at ANNUAL, 12/23 12:15 - 12:30
   **   ~~~   ** The solution for one or more of the Air Loop HVAC systems did not appear to converge
   **   ~~~   ** Air System Named = CENTRAL SYSTEM did not converge for mass flow rate
   **   ~~~   ** Check values should be zero. Most Recent values listed first.
   **   ~~~   ** Demand-to-Supply interface mass flow rate check value iteration history trace: 4.926512E-002,4.926512E-002,4.926512E-002,4.926512E-002,4.926512E-002,4.926512E-002,4.926512E-002,4.926512E-002,4.926512E-002,4.926512E-002,
   **   ~~~   ** Supply-to-demand interface deck 1 mass flow rate check value iteration history trace: 4.926512E-002,4.926512E-002,4.926512E-002,4.926512E-002,4.926512E-002,4.926512E-002,4.926512E-002,4.926512E-002,4.926512E-002,4.926512E-002,
   **   ~~~   ** Air System Named = CENTRAL SYSTEM did not converge for energy
   **   ~~~   ** Check values should be zero. Most Recent values listed first.
   **   ~~~   ** Demand-to-Supply interface energy check value iteration history trace: 976.268305,976.268305,976.268305,976.268305,976.268305,976.268305,976.268305,976.268305,976.268305,976.268305,
   **   ~~~   ** Supply-to-demand interface deck 1 energy check value iteration history trace: 1799.565817,1799.565817,1799.565817,1799.565817,1799.565817,1799.565817,1799.565817,1799.565817,1799.565817,1799.565817,
   ************* Simulation Error Summary *************
   ** Warning ** The following Report Variables were requested but not generated -- check.rdd file
   **   ~~~   ** Either the IDF did not contain these elements, the variable name is misspelled,
   **   ~~~   ** or the requested variable is an advanced output which requires Output : Diagnostics, DisplayAdvancedReportVariables;
   ************* Key=*, VarName=BASEBOARD TOTAL HEATING ENERGY, Frequency=
   ************* Key=*, VarName=WATER HEATER NATURALGAS ENERGY, Frequency=
   ************* Key=*, VarName=COOLING COIL TOTAL HEATING ENERGY, Frequency=
   ************* There are 34 unused schedules in input.
   ************* There are 388 unused week schedules in input.
   ************* There are 397 unused day schedules in input.
   ************* Use Output:Diagnostics,DisplayUnusedSchedules; to see them.
   *************
   ************* ===== Recurring Error Summary =====
   ************* The following recurring error messages occurred.
   *************
   *************  ** Warning ** "TOTAL HOT WATER LOAD" - Target water temperature should be less than or equal to the hot water temperature error continues...
   *************  **   ~~~   **   This error occurred 111675 total times;
   *************  **   ~~~   **   during Warmup 0 times;
   *************  **   ~~~   **   during Sizing 0 times.
   *************  **   ~~~   **   Max=9.340244  Min=6.089115E-004
   *************
   *************
   ************* ===== Final Error Summary =====
   ************* The following error categories occurred.  Consider correcting or noting.
   ************* Nominally Unused Constructions
   ************* ..The nominally unused constructions warning is provided to alert you to potential conditions that can cause
   ************* ..extra time during simulation. Each construction is calculated by the algorithm indicated in the HeatBalanceAlgorithm
   ************* ..object. You may remove the constructions indicated (when you use the DisplayExtraWarnings option).
   *************
   ************* EnergyPlus Warmup Error Summary. During Warmup: 1 Warning; 0 Severe Errors.
   ************* EnergyPlus Sizing Error Summary. During Sizing: 4 Warning; 0 Severe Errors.
   ************* EnergyPlus Completed Successfully-- 111701 Warning; 0 Severe Errors; Elapsed Time=00hr 01min 39.29sec
