Program Version,EnergyPlus, Version 22.2.0-c249759bad, YMD=2023.09.01 14:36,
   ************* Beginning Zone Sizing Calculations
   ** Warning ** ProcessScheduleInput: Schedule:Constant="ALWAYS ON DISCRETE", Schedule Type Limits Name="ONOFF" not found -- will not be validated
   ** Warning ** Foundation:Kiva="KIVA FOUNDATION", no Interior Horizontal Insulation Material Name defined
   **   ~~~   ** Interior Horizontal Insulation Depth will not be used.
   ** Warning ** CheckUsedConstructions: There are 15 nominally unused constructions in input.
   **   ~~~   ** Each Unused construction is shown.
   ************* Construction=INTERIOR FLOOR
   ************* Construction=INTERIOR WINDOW
   ************* Construction=EXTERIOR DOOR
   ************* Construction=INTERIOR DOOR
   ************* Construction=GABLE CONSTRUCTION
   ************* Construction=CRAWL_FLOOR
   ************* Construction=INSULATED PIPE
   ************* Construction=PLAIN PIPE
   ************* Construction=TDD PIPE
   ************* Construction=TDD DOME
   ************* Construction=TDD DIFFUSER
   ************* Construction=CRAWL WALL
   ************* Construction=CEILING-FLOOR-LAYER
   ************* Construction=SLAB CONSTRUCTION W FULL R10 INSULATION
   ************* Construction=SLAB CONSTRUCTION W FULL R5 INSULATION
   ** Warning ** GetDXCoils: Coil:Heating:DX:SingleSpeed="DX_HEATING_COIL" curve values
   **   ~~~   ** ... Defrost Energy Input Ratio Function of Temperature Curve Name = DEFROSTEIR output is not equal to 1.0 (+ or - 10%) at rated conditions.
   **   ~~~   ** ... Curve output at rated conditions = 0.152
   ************* Beginning System Sizing Calculations
   ************* Beginning Plant Sizing Calculations
   ** Warning ** Coil:WaterHeating:AirToWaterHeatPump:Wrapped "HEAT PUMP WATER HEATER EVAPORATOR": Rated air volume flow rate per watt of rated total water heating capacity is out of range
   **   ~~~   ** Min Rated Vol Flow Per Watt=[4.027E-005], Rated Vol Flow Per Watt=[1.386E-004], Max Rated Vol Flow Per Watt=[8.056E-005]. See Input-Output Reference Manual for valid range.
   ** Warning ** Water heater = WATER HEATER TANK:  Recovery Efficiency and Energy Factor could not be calculated during the test for standard ratings
   **   ~~~   ** Setpoint was never recovered and/or heater never turned on
   ** Warning ** Check input. Pump nominal power or motor efficiency is set to 0, for pump=MAINS PRESSURE
   ** Warning ** Output:Meter: invalid Key Name="ELECTRIC_RANGE:INTERIOREQUIPMENT:ELECTRICITY" - not found.
   ** Warning ** Output:Meter: invalid Key Name="ELECTRIC_DRYER:INTERIOREQUIPMENT:ELECTRICITY" - not found.
   ** Warning ** Output:Meter: invalid Key Name="HEATRECOVERY:ELECTRICITY" - not found.
   ** Warning ** Output:Meter: invalid Key Name="HEATING:NATURALGAS" - not found.
   ** Warning ** Output:Meter: invalid Key Name="WATERSYSTEMS:NATURALGAS" - not found.
   ** Warning ** Output:Meter: invalid Key Name="PROPANE:FACILITY" - not found.
   ** Warning ** Output:Meter: invalid Key Name="HEATING:PROPANE" - not found.
   ************* Testing Individual Branch Integrity
   ************* All Branches passed integrity testing
   ************* Testing Individual Supply Air Path Integrity
   ************* All Supply Air Paths passed integrity testing
   ************* Testing Individual Return Air Path Integrity
   ************* All Return Air Paths passed integrity testing
   ************* No node connection errors were found.
   ************* Beginning Simulation
   ** Warning ** AirflowNetwork::Solver::validate_distribution: Heat pump water heater is simulated along with an AirflowNetwork but is not included in the AirflowNetwork.
   ** Warning ** CalcEquipmentFlowRates: "TOTAL HOT WATER LOAD" - Target water temperature is greater than the hot water temperature by (1.70 C)
   **   ~~~   **  Environment=EXTREME_WINTER, at Simulation time=01/13 06:00 - 06:15
   **   ~~~   ** ...target water temperature     = 53.33 C
   **   ~~~   ** ...hot water temperature        = 51.63 C
   **   ~~~   ** ...Target water temperature should be less than or equal to the hot water temperature. Verify temperature setpoints and schedules.
   ** Warning ** SimHVAC: Maximum iterations (20) exceeded for all HVAC loops, at EXTREME_WINTER, 01/19 08:47 - 08:49
   **   ~~~   ** The solution for one or more of the Air Loop HVAC systems did not appear to converge
   **   ~~~   ** Air System Named = CENTRAL SYSTEM did not converge for mass flow rate
   **   ~~~   ** Check values should be zero. Most Recent values listed first.
   **   ~~~   ** Demand-to-Supply interface mass flow rate check value iteration history trace: 8.503151E-002,8.503151E-002,8.503151E-002,8.503151E-002,8.503151E-002,8.503151E-002,8.503151E-002,8.503151E-002,8.503151E-002,8.503151E-002,
   **   ~~~   ** Supply-to-demand interface deck 1 mass flow rate check value iteration history trace: 8.503151E-002,8.503151E-002,8.503151E-002,8.503151E-002,8.503151E-002,8.503151E-002,8.503151E-002,8.503151E-002,8.503151E-002,8.503151E-002,
   **   ~~~   ** Air System Named = CENTRAL SYSTEM did not converge for energy
   **   ~~~   ** Check values should be zero. Most Recent values listed first.
   **   ~~~   ** Demand-to-Supply interface energy check value iteration history trace: 1683.962459,1683.962459,1683.962459,1683.962459,1683.962459,1683.962459,1683.962459,1683.962459,1683.962459,1683.962458,
   **   ~~~   ** Supply-to-demand interface deck 1 energy check value iteration history trace: 2973.200011,2973.200011,2973.200011,2973.200011,2973.200011,2973.200011,2973.200011,2973.200011,2973.200010,2973.200010,
   ** Warning ** SimHVAC: Maximum iterations (20) exceeded for all HVAC loops, at ANNUAL, 01/17 08:00 - 08:15
   **   ~~~   ** The solution for one or more of the Air Loop HVAC systems did not appear to converge
   **   ~~~   ** Air System Named = CENTRAL SYSTEM did not converge for mass flow rate
   **   ~~~   ** Check values should be zero. Most Recent values listed first.
   **   ~~~   ** Demand-to-Supply interface mass flow rate check value iteration history trace: 8.885198E-002,8.885198E-002,8.885198E-002,8.885198E-002,8.885198E-002,8.885198E-002,8.885198E-002,8.885198E-002,8.885198E-002,8.885198E-002,
   **   ~~~   ** Supply-to-demand interface deck 1 mass flow rate check value iteration history trace: 8.885198E-002,8.885198E-002,8.885198E-002,8.885198E-002,8.885198E-002,8.885198E-002,8.885198E-002,8.885198E-002,8.885198E-002,8.885198E-002,
   **   ~~~   ** Air System Named = CENTRAL SYSTEM did not converge for energy
   **   ~~~   ** Check values should be zero. Most Recent values listed first.
   **   ~~~   ** Demand-to-Supply interface energy check value iteration history trace: 1760.477222,1760.477222,1760.477222,1760.477222,1760.477222,1760.477221,1760.477221,1760.477221,1760.477221,1760.477221,
   **   ~~~   ** Supply-to-demand interface deck 1 energy check value iteration history trace: 2998.297402,2998.297402,2998.297402,2998.297401,2998.297401,2998.297401,2998.297401,2998.297401,2998.297401,2998.297400,
   ** Warning ** SimHVAC: Maximum iterations (20) exceeded for all HVAC loops, at ANNUAL, 01/25 07:00 - 07:15
   **   ~~~   ** The solution for one or more of the Air Loop HVAC systems did not appear to converge
   **   ~~~   ** Air System Named = CENTRAL SYSTEM did not converge for mass flow rate
   **   ~~~   ** Check values should be zero. Most Recent values listed first.
   **   ~~~   ** Demand-to-Supply interface mass flow rate check value iteration history trace: 8.593907E-002,8.593907E-002,8.593907E-002,8.593907E-002,8.593907E-002,8.593907E-002,8.593907E-002,8.593907E-002,8.593907E-002,8.593907E-002,
   **   ~~~   ** Supply-to-demand interface deck 1 mass flow rate check value iteration history trace: 8.593907E-002,8.593907E-002,8.593907E-002,8.593907E-002,8.593907E-002,8.593907E-002,8.593907E-002,8.593907E-002,8.593907E-002,8.593907E-002,
   **   ~~~   ** Air System Named = CENTRAL SYSTEM did not converge for energy
   **   ~~~   ** Check values should be zero. Most Recent values listed first.
   **   ~~~   ** Demand-to-Supply interface energy check value iteration history trace: 1701.983057,1701.983057,1701.983057,1701.983057,1701.983057,1701.983057,1701.983056,1701.983056,1701.983056,1701.983056,
   **   ~~~   ** Supply-to-demand interface deck 1 energy check value iteration history trace: 2939.595542,2939.595541,2939.595541,2939.595541,2939.595541,2939.595541,2939.595541,2939.595541,2939.595540,2939.595540,
   ** Warning ** SimHVAC: Maximum iterations (20) exceeded for all HVAC loops, at ANNUAL, 02/09 07:45 - 07:50
   **   ~~~   ** The solution for one or more of the Air Loop HVAC systems did not appear to converge
   **   ~~~   ** Air System Named = CENTRAL SYSTEM did not converge for mass flow rate
   **   ~~~   ** Check values should be zero. Most Recent values listed first.
   **   ~~~   ** Demand-to-Supply interface mass flow rate check value iteration history trace: 7.253310E-002,7.253310E-002,7.253310E-002,7.253310E-002,7.253310E-002,7.253310E-002,7.253310E-002,7.253310E-002,7.253310E-002,7.253310E-002,
   **   ~~~   ** Supply-to-demand interface deck 1 mass flow rate check value iteration history trace: 7.253310E-002,7.253310E-002,7.253310E-002,7.253310E-002,7.253310E-002,7.253310E-002,7.253310E-002,7.253310E-002,7.253310E-002,7.253310E-002,
   **   ~~~   ** Air System Named = CENTRAL SYSTEM did not converge for energy
   **   ~~~   ** Check values should be zero. Most Recent values listed first.
   **   ~~~   ** Demand-to-Supply interface energy check value iteration history trace: 1421.011675,1421.011675,1421.011675,1421.011675,1421.011675,1421.011675,1421.011675,1421.011675,1421.011675,1421.011675,
   **   ~~~   ** Supply-to-demand interface deck 1 energy check value iteration history trace: 2520.630926,2520.630925,2520.630925,2520.630925,2520.630925,2520.630925,2520.630925,2520.630925,2520.630925,2520.630925,
   ** Warning ** SimHVAC: Maximum iterations (20) exceeded for all HVAC loops, at ANNUAL, 02/14 08:00 - 08:15
   **   ~~~   ** The solution for one or more of the Air Loop HVAC systems did not appear to converge
   **   ~~~   ** Air System Named = CENTRAL SYSTEM did not converge for mass flow rate
   **   ~~~   ** Check values should be zero. Most Recent values listed first.
   **   ~~~   ** Demand-to-Supply interface mass flow rate check value iteration history trace: 7.453027E-002,7.453027E-002,7.453027E-002,7.453027E-002,7.453027E-002,7.453027E-002,7.453027E-002,7.453027E-002,7.453027E-002,7.453027E-002,
   **   ~~~   ** Supply-to-demand interface deck 1 mass flow rate check value iteration history trace: 7.453027E-002,7.453027E-002,7.453027E-002,7.453027E-002,7.453027E-002,7.453027E-002,7.453027E-002,7.453027E-002,7.453027E-002,7.453027E-002,
   **   ~~~   ** Air System Named = CENTRAL SYSTEM did not converge for energy
   **   ~~~   ** Check values should be zero. Most Recent values listed first.
   **   ~~~   ** Demand-to-Supply interface energy check value iteration history trace: 1455.593764,1455.593764,1455.593764,1455.593764,1455.593764,1455.593764,1455.593764,1455.593764,1455.593764,1455.593764,
   **   ~~~   ** Supply-to-demand interface deck 1 energy check value iteration history trace: 2652.514531,2652.514531,2652.514531,2652.514531,2652.514531,2652.514531,2652.514531,2652.514531,2652.514531,2652.514530,
   ** Warning ** SimHVAC: Maximum iterations (20) exceeded for all HVAC loops, at ANNUAL, 02/15 07:38 - 07:41
   **   ~~~   ** The solution for one or more of the Air Loop HVAC systems did not appear to converge
   **   ~~~   ** Air System Named = CENTRAL SYSTEM did not converge for mass flow rate
   **   ~~~   ** Check values should be zero. Most Recent values listed first.
   **   ~~~   ** Demand-to-Supply interface mass flow rate check value iteration history trace: 6.840495E-002,6.840495E-002,6.840495E-002,6.840495E-002,6.840495E-002,6.840495E-002,6.840495E-002,6.840495E-002,6.840495E-002,6.840495E-002,
   **   ~~~   ** Supply-to-demand interface deck 1 mass flow rate check value iteration history trace: 6.840495E-002,6.840495E-002,6.840495E-002,6.840495E-002,6.840495E-002,6.840495E-002,6.840495E-002,6.840495E-002,6.840495E-002,6.840495E-002,
   **   ~~~   ** Air System Named = CENTRAL SYSTEM did not converge for energy
   **   ~~~   ** Check values should be zero. Most Recent values listed first.
   **   ~~~   ** Demand-to-Supply interface energy check value iteration history trace: 1355.572115,1355.572115,1355.572115,1355.572115,1355.572115,1355.572115,1355.572115,1355.572115,1355.572115,1355.572115,
   **   ~~~   ** Supply-to-demand interface deck 1 energy check value iteration history trace: 2418.660473,2418.660473,2418.660473,2418.660473,2418.660473,2418.660473,2418.660473,2418.660473,2418.660473,2418.660472,
   ** Warning ** SimHVAC: Maximum iterations (20) exceeded for all HVAC loops, at ANNUAL, 02/17 06:15 - 06:30
   **   ~~~   ** The solution for one or more of the Air Loop HVAC systems did not appear to converge
   **   ~~~   ** Air System Named = CENTRAL SYSTEM did not converge for mass flow rate
   **   ~~~   ** Check values should be zero. Most Recent values listed first.
   **   ~~~   ** Demand-to-Supply interface mass flow rate check value iteration history trace: 8.388130E-002,8.388130E-002,8.388130E-002,8.388130E-002,8.388130E-002,8.388130E-002,8.388130E-002,8.388130E-002,8.388130E-002,8.388130E-002,
   **   ~~~   ** Supply-to-demand interface deck 1 mass flow rate check value iteration history trace: 8.388130E-002,8.388130E-002,8.388130E-002,8.388130E-002,8.388130E-002,8.388130E-002,8.388130E-002,8.388130E-002,8.388130E-002,8.388130E-002,
   **   ~~~   ** Air System Named = CENTRAL SYSTEM did not converge for energy
   **   ~~~   ** Check values should be zero. Most Recent values listed first.
   **   ~~~   ** Demand-to-Supply interface energy check value iteration history trace: 1661.881852,1661.881852,1661.881852,1661.881852,1661.881852,1661.881852,1661.881852,1661.881852,1661.881851,1661.881851,
   **   ~~~   ** Supply-to-demand interface deck 1 energy check value iteration history trace: 2826.898378,2826.898378,2826.898377,2826.898377,2826.898377,2826.898377,2826.898377,2826.898377,2826.898377,2826.898377,
   ** Warning ** SimHVAC: Maximum iterations (20) exceeded for all HVAC loops, at ANNUAL, 12/21 16:38 - 16:41
   **   ~~~   ** The solution for one or more of the Air Loop HVAC systems did not appear to converge
   **   ~~~   ** Air System Named = CENTRAL SYSTEM did not converge for mass flow rate
   **   ~~~   ** Check values should be zero. Most Recent values listed first.
   **   ~~~   ** Demand-to-Supply interface mass flow rate check value iteration history trace: 7.758598E-002,7.758598E-002,7.758598E-002,7.758598E-002,7.758598E-002,7.758598E-002,7.758598E-002,7.758598E-002,7.758598E-002,7.758598E-002,
   **   ~~~   ** Supply-to-demand interface deck 1 mass flow rate check value iteration history trace: 7.758598E-002,7.758598E-002,7.758598E-002,7.758598E-002,7.758598E-002,7.758598E-002,7.758598E-002,7.758598E-002,7.758598E-002,7.758598E-002,
   **   ~~~   ** Air System Named = CENTRAL SYSTEM did not converge for energy
   **   ~~~   ** Check values should be zero. Most Recent values listed first.
   **   ~~~   ** Demand-to-Supply interface energy check value iteration history trace: 1839.373074,1839.373074,1839.373074,1839.373075,1839.373075,1839.373075,1839.373075,1839.373075,1839.373075,1839.373075,
   **   ~~~   ** Supply-to-demand interface deck 1 energy check value iteration history trace: 689.807166,689.807166,689.807166,689.807166,689.807166,689.807166,689.807166,689.807166,689.807166,689.807166,
   ** Warning ** SimHVAC: Maximum iterations (20) exceeded for all HVAC loops, at ANNUAL, 12/23 19:45 - 20:00
   **   ~~~   ** The solution for one or more of the Air Loop HVAC systems did not appear to converge
   **   ~~~   ** Air System Named = CENTRAL SYSTEM did not converge for mass flow rate
   **   ~~~   ** Check values should be zero. Most Recent values listed first.
   **   ~~~   ** Demand-to-Supply interface mass flow rate check value iteration history trace: 7.046335E-002,7.046335E-002,7.046335E-002,7.046335E-002,7.046335E-002,7.046335E-002,7.046335E-002,7.046335E-002,7.046335E-002,7.046335E-002,
   **   ~~~   ** Supply-to-demand interface deck 1 mass flow rate check value iteration history trace: 7.046335E-002,7.046335E-002,7.046335E-002,7.046335E-002,7.046335E-002,7.046335E-002,7.046335E-002,7.046335E-002,7.046335E-002,7.046335E-002,
   **   ~~~   ** Air System Named = CENTRAL SYSTEM did not converge for energy
   **   ~~~   ** Check values should be zero. Most Recent values listed first.
   **   ~~~   ** Demand-to-Supply interface energy check value iteration history trace: 1671.194253,1671.194253,1671.194253,1671.194253,1671.194254,1671.194254,1671.194254,1671.194254,1671.194254,1671.194254,
   **   ~~~   ** Supply-to-demand interface deck 1 energy check value iteration history trace: 668.685892,668.685892,668.685892,668.685892,668.685892,668.685892,668.685892,668.685892,668.685892,668.685892,
   ** Warning ** SimHVAC: Maximum iterations (20) exceeded for all HVAC loops, at ANNUAL, 12/25 20:15 - 20:30
   **   ~~~   ** The solution for one or more of the Air Loop HVAC systems did not appear to converge
   **   ~~~   ** Air System Named = CENTRAL SYSTEM did not converge for mass flow rate
   **   ~~~   ** Check values should be zero. Most Recent values listed first.
   **   ~~~   ** Demand-to-Supply interface mass flow rate check value iteration history trace: 0.151391,0.151391,0.151391,0.151391,0.151391,0.151391,0.151391,0.151391,0.151391,0.151391,
   **   ~~~   ** Supply-to-demand interface deck 1 mass flow rate check value iteration history trace: 0.151391,0.151391,0.151391,0.151391,0.151391,0.151391,0.151391,0.151391,0.151391,0.151391,
   **   ~~~   ** Air System Named = CENTRAL SYSTEM did not converge for energy
   **   ~~~   ** Check values should be zero. Most Recent values listed first.
   **   ~~~   ** Demand-to-Supply interface energy check value iteration history trace: 3675.911868,3675.911868,3675.911868,3675.911869,3675.911869,3675.911869,3675.911869,3675.911870,3675.911870,3675.911870,
   **   ~~~   ** Supply-to-demand interface deck 1 energy check value iteration history trace: 1583.212099,1583.212099,1583.212099,1583.212099,1583.212099,1583.212100,1583.212100,1583.212100,1583.212100,1583.212100,
   ** Warning ** SimHVAC: Maximum iterations (20) exceeded for all HVAC loops, at ANNUAL, 12/27 08:00 - 08:05
   **   ~~~   ** The solution for one or more of the Air Loop HVAC systems did not appear to converge
   **   ~~~   ** Air System Named = CENTRAL SYSTEM did not converge for mass flow rate
   **   ~~~   ** Check values should be zero. Most Recent values listed first.
   **   ~~~   ** Demand-to-Supply interface mass flow rate check value iteration history trace: 6.966482E-002,6.966482E-002,6.966482E-002,6.966482E-002,6.966482E-002,6.966482E-002,6.966482E-002,6.966482E-002,6.966482E-002,6.966482E-002,
   **   ~~~   ** Supply-to-demand interface deck 1 mass flow rate check value iteration history trace: 6.966482E-002,6.966482E-002,6.966482E-002,6.966482E-002,6.966482E-002,6.966482E-002,6.966482E-002,6.966482E-002,6.966482E-002,6.966482E-002,
   **   ~~~   ** Air System Named = CENTRAL SYSTEM did not converge for energy
   **   ~~~   ** Check values should be zero. Most Recent values listed first.
   **   ~~~   ** Demand-to-Supply interface energy check value iteration history trace: 1380.455546,1380.455546,1380.455546,1380.455546,1380.455546,1380.455546,1380.455546,1380.455546,1380.455546,1380.455545,
   **   ~~~   ** Supply-to-demand interface deck 1 energy check value iteration history trace: 2383.311790,2383.311790,2383.311790,2383.311789,2383.311789,2383.311789,2383.311789,2383.311789,2383.311789,2383.311789,
   ** Warning ** SimHVAC: Maximum iterations (20) exceeded for all HVAC loops, at ANNUAL, 12/28 19:45 - 20:00
   **   ~~~   ** The solution for one or more of the Air Loop HVAC systems did not appear to converge
   **   ~~~   ** Air System Named = CENTRAL SYSTEM did not converge for mass flow rate
   **   ~~~   ** Check values should be zero. Most Recent values listed first.
   **   ~~~   ** Demand-to-Supply interface mass flow rate check value iteration history trace: 5.590278E-002,5.590278E-002,5.590278E-002,5.590278E-002,5.590278E-002,5.590278E-002,5.590278E-002,5.590278E-002,5.590278E-002,5.590278E-002,
   **   ~~~   ** Supply-to-demand interface deck 1 mass flow rate check value iteration history trace: 5.590278E-002,5.590278E-002,5.590278E-002,5.590278E-002,5.590278E-002,5.590278E-002,5.590278E-002,5.590278E-002,5.590278E-002,5.590278E-002,
   **   ~~~   ** Air System Named = CENTRAL SYSTEM did not converge for energy
   **   ~~~   ** Check values should be zero. Most Recent values listed first.
   **   ~~~   ** Demand-to-Supply interface energy check value iteration history trace: 1310.153042,1310.153042,1310.153042,1310.153042,1310.153042,1310.153042,1310.153042,1310.153042,1310.153042,1310.153042,
   **   ~~~   ** Supply-to-demand interface deck 1 energy check value iteration history trace: 512.128537,512.128537,512.128537,512.128537,512.128537,512.128537,512.128537,512.128537,512.128537,512.128537,
   ************* Simulation Error Summary *************
   ** Warning ** The following Report Variables were requested but not generated -- check.rdd file
   **   ~~~   ** Either the IDF did not contain these elements, the variable name is misspelled,
   **   ~~~   ** or the requested variable is an advanced output which requires Output : Diagnostics, DisplayAdvancedReportVariables;
   ************* Key=*, VarName=BASEBOARD TOTAL HEATING ENERGY, Frequency=
   ************* Key=*, VarName=WATER HEATER NATURALGAS ENERGY, Frequency=
   ************* Key=*, VarName=COOLING COIL TOTAL HEATING ENERGY, Frequency=
   ************* There are 34 unused schedules in input.
   ************* There are 388 unused week schedules in input.
   ************* There are 396 unused day schedules in input.
   ************* Use Output:Diagnostics,DisplayUnusedSchedules; to see them.
   *************
   ************* ===== Recurring Error Summary =====
   ************* The following recurring error messages occurred.
   *************
   *************  ** Warning ** "TOTAL HOT WATER LOAD" - Target water temperature should be less than or equal to the hot water temperature error continues...
   *************  **   ~~~   **   This error occurred 167019 total times;
   *************  **   ~~~   **   during Warmup 0 times;
   *************  **   ~~~   **   during Sizing 0 times.
   *************  **   ~~~   **   Max=6.824465  Min=1.037134E-005
   *************
   *************
   ************* ===== Final Error Summary =====
   ************* The following error categories occurred.  Consider correcting or noting.
   ************* Nominally Unused Constructions
   ************* ..The nominally unused constructions warning is provided to alert you to potential conditions that can cause
   ************* ..extra time during simulation. Each construction is calculated by the algorithm indicated in the HeatBalanceAlgorithm
   ************* ..object. You may remove the constructions indicated (when you use the DisplayExtraWarnings option).
   *************
   ************* EnergyPlus Warmup Error Summary. During Warmup: 1 Warning; 0 Severe Errors.
   ************* EnergyPlus Sizing Error Summary. During Sizing: 4 Warning; 0 Severe Errors.
   ************* EnergyPlus Completed Successfully-- 167048 Warning; 0 Severe Errors; Elapsed Time=00hr 07min  7.47sec
