Program Version,EnergyPlus, Version 22.2.0-c249759bad, YMD=2023.09.01 19:18,
   ************* Beginning Zone Sizing Calculations
   ** Warning ** ProcessScheduleInput: Schedule:Constant="ALWAYS ON DISCRETE", Schedule Type Limits Name="ONOFF" not found -- will not be validated
   ** Warning ** Foundation:Kiva="KIVA FOUNDATION", no Interior Horizontal Insulation Material Name defined
   **   ~~~   ** Interior Horizontal Insulation Depth will not be used.
   ** Warning ** CheckUsedConstructions: There are 15 nominally unused constructions in input.
   **   ~~~   ** Each Unused construction is shown.
   ************* Construction=INTERIOR FLOOR
   ************* Construction=INTERIOR WINDOW
   ************* Construction=EXTERIOR DOOR
   ************* Construction=INTERIOR DOOR
   ************* Construction=GABLE CONSTRUCTION
   ************* Construction=CRAWL_FLOOR
   ************* Construction=INSULATED PIPE
   ************* Construction=PLAIN PIPE
   ************* Construction=TDD PIPE
   ************* Construction=TDD DOME
   ************* Construction=TDD DIFFUSER
   ************* Construction=CRAWL WALL
   ************* Construction=CEILING-FLOOR-LAYER
   ************* Construction=SLAB CONSTRUCTION W FULL R10 INSULATION
   ************* Construction=SLAB CONSTRUCTION W FULL R5 INSULATION
   ** Warning ** GetDXCoils: Coil:Heating:DX:SingleSpeed="DX_HEATING_COIL" curve values
   **   ~~~   ** ... Defrost Energy Input Ratio Function of Temperature Curve Name = DEFROSTEIR output is not equal to 1.0 (+ or - 10%) at rated conditions.
   **   ~~~   ** ... Curve output at rated conditions = 0.152
   ************* Beginning System Sizing Calculations
   ************* Beginning Plant Sizing Calculations
   ** Warning ** SizeDXCoil Coil:Cooling:DX:SingleSpeed DX_COOLING_COIL
   **   ~~~   ** ...Gross Rated Total Cooling Capacity [W] will be limited by the maximum rated volume flow per rated total capacity ratio.
   **   ~~~   ** ...DX coil volume flow rate ( m3/s ) = 0.373229
   **   ~~~   ** ...Requested capacity ( W ) = 5725.489
   **   ~~~   ** ...Requested flow/capacity ratio ( m3/s/W ) = 6.518E-005
   **   ~~~   ** ...Maximum flow/capacity ratio ( m3/s/W ) = 6.041E-005
   **   ~~~   ** ...Adjusted capacity ( W ) = 6178.273
   ** Warning ** SizeDXCoil Coil:Heating:DX:SingleSpeed DX_HEATING_COIL
   **   ~~~   ** ...Gross Rated Heating Capacity [W] will be limited by the maximum rated volume flow per rated total capacity ratio.
   **   ~~~   ** ...DX coil volume flow rate ( m3/s ) = 0.373229
   **   ~~~   ** ...Requested capacity ( W ) = 6178.273
   **   ~~~   ** ...Requested flow/capacity ratio ( m3/s/W ) = 6.041E-005
   **   ~~~   ** ...Maximum flow/capacity ratio ( m3/s/W ) = 6.041E-005
   **   ~~~   ** ...Adjusted capacity ( W ) = 6178.273
   ** Warning ** Coil:WaterHeating:AirToWaterHeatPump:Wrapped "HEAT PUMP WATER HEATER EVAPORATOR": Rated air volume flow rate per watt of rated total water heating capacity is out of range
   **   ~~~   ** Min Rated Vol Flow Per Watt=[4.027E-005], Rated Vol Flow Per Watt=[1.510E-004], Max Rated Vol Flow Per Watt=[8.056E-005]. See Input-Output Reference Manual for valid range.
   ************* SizeFan: : Potential issue with equipment sizing for Fan:OnOff HEAT PUMP WATER HEATER FAN
   **   ~~~   ** User-Specified Maximum Flow Rate [m3/s] = 0.22653
   **   ~~~   ** differs from Design Size Maximum Flow Rate [m3/s] = 7.55250E-002
   **   ~~~   ** This may, or may not, indicate mismatched component sizes.
   **   ~~~   ** Verify that the value entered is intended and is consistent with other components.
   ** Warning ** Water heater = WATER HEATER TANK:  Recovery Efficiency and Energy Factor could not be calculated during the test for standard ratings
   **   ~~~   ** Setpoint was never recovered and/or heater never turned on
   ** Warning ** Check input. Pump nominal power or motor efficiency is set to 0, for pump=MAINS PRESSURE
   ** Warning ** Output:Meter: invalid Key Name="ELECTRIC_RANGE:INTERIOREQUIPMENT:ELECTRICITY" - not found.
   ** Warning ** Output:Meter: invalid Key Name="ELECTRIC_DRYER:INTERIOREQUIPMENT:ELECTRICITY" - not found.
   ** Warning ** Output:Meter: invalid Key Name="HEATRECOVERY:ELECTRICITY" - not found.
   ** Warning ** Output:Meter: invalid Key Name="HEATING:NATURALGAS" - not found.
   ** Warning ** Output:Meter: invalid Key Name="WATERSYSTEMS:NATURALGAS" - not found.
   ** Warning ** Output:Meter: invalid Key Name="PROPANE:FACILITY" - not found.
   ** Warning ** Output:Meter: invalid Key Name="HEATING:PROPANE" - not found.
   ************* Testing Individual Branch Integrity
   ************* All Branches passed integrity testing
   ************* Testing Individual Supply Air Path Integrity
   ************* All Supply Air Paths passed integrity testing
   ************* Testing Individual Return Air Path Integrity
   ************* All Return Air Paths passed integrity testing
   ************* No node connection errors were found.
   ************* Beginning Simulation
   ** Warning ** AirflowNetwork::Solver::validate_distribution: Heat pump water heater is simulated along with an AirflowNetwork but is not included in the AirflowNetwork.
   ** Severe  ** CheckWarmupConvergence: Loads Initialization, Zone="ATTIC" did not converge after 25 warmup days.
   **   ~~~   ** See Warmup Convergence Information in .eio file for details.
   **   ~~~   ** ...Environment(SizingPeriod)="EXTREME_WINTER"
   **   ~~~   ** ..Max Temp Comparison = 9.17E-003 vs Temperature Convergence Tolerance=5.00E-002 - Pass Convergence
   **   ~~~   ** ..Min Temp Comparison = 7.64E-002 vs Temperature Convergence Tolerance=5.00E-002 - Fail Convergence
   **   ~~~   ** ..Max Heat Load Comparison = 0.0000 vs Loads Convergence Tolerance=5.00E-002 - Pass Convergence
   **   ~~~   ** ..Max Cool Load Comparison = 0.0000 vs Loads Convergence Tolerance=5.00E-002 - Pass Convergence
   ** Warning ** CalcEquipmentFlowRates: "TOTAL HOT WATER LOAD" - Target water temperature is greater than the hot water temperature by (2.35E-002 C)
   **   ~~~   **  Environment=EXTREME_WINTER, at Simulation time=01/20 06:45 - 07:00
   **   ~~~   ** ...target water temperature     = 53.33 C
   **   ~~~   ** ...hot water temperature        = 53.31 C
   **   ~~~   ** ...Target water temperature should be less than or equal to the hot water temperature. Verify temperature setpoints and schedules.
   ** Warning ** SimHVAC: Maximum iterations (20) exceeded for all HVAC loops, at EXTREME_SUMMER, 08/09 04:08 - 04:15
   **   ~~~   ** The solution for one or more of the Air Loop HVAC systems did not appear to converge
   **   ~~~   ** Air System Named = CENTRAL SYSTEM did not converge for mass flow rate
   **   ~~~   ** Check values should be zero. Most Recent values listed first.
   **   ~~~   ** Demand-to-Supply interface mass flow rate check value iteration history trace: 9.902653E-002,9.902653E-002,9.902653E-002,9.902653E-002,9.902653E-002,9.902653E-002,9.902653E-002,9.902653E-002,9.902653E-002,9.902653E-002,
   **   ~~~   ** Supply-to-demand interface deck 1 mass flow rate check value iteration history trace: 9.902653E-002,9.902653E-002,9.902653E-002,9.902653E-002,9.902653E-002,9.902653E-002,9.902653E-002,9.902653E-002,9.902653E-002,9.902653E-002,
   **   ~~~   ** Air System Named = CENTRAL SYSTEM did not converge for energy
   **   ~~~   ** Check values should be zero. Most Recent values listed first.
   **   ~~~   ** Demand-to-Supply interface energy check value iteration history trace: 2435.877459,2435.877460,2435.877460,2435.877461,2435.877462,2435.877463,2435.877464,2435.877464,2435.877465,2435.877466,
   **   ~~~   ** Supply-to-demand interface deck 1 energy check value iteration history trace: 1367.561160,1367.561160,1367.561161,1367.561161,1367.561162,1367.561162,1367.561162,1367.561163,1367.561163,1367.561164,
   ** Warning ** SimHVAC: Maximum iterations (20) exceeded for all HVAC loops, at ANNUAL, 01/06 16:15 - 16:30
   **   ~~~   ** The solution for one or more of the Air Loop HVAC systems did not appear to converge
   **   ~~~   ** Air System Named = CENTRAL SYSTEM did not converge for mass flow rate
   **   ~~~   ** Check values should be zero. Most Recent values listed first.
   **   ~~~   ** Demand-to-Supply interface mass flow rate check value iteration history trace: 5.226251E-002,5.226251E-002,5.226251E-002,5.226251E-002,5.226251E-002,5.226251E-002,5.226251E-002,5.226251E-002,5.226251E-002,5.226251E-002,
   **   ~~~   ** Supply-to-demand interface deck 1 mass flow rate check value iteration history trace: 5.226251E-002,5.226251E-002,5.226251E-002,5.226251E-002,5.226251E-002,5.226251E-002,5.226251E-002,5.226251E-002,5.226251E-002,5.226251E-002,
   **   ~~~   ** Air System Named = CENTRAL SYSTEM did not converge for energy
   **   ~~~   ** Check values should be zero. Most Recent values listed first.
   **   ~~~   ** Demand-to-Supply interface energy check value iteration history trace: 1035.960079,1035.960079,1035.960079,1035.960079,1035.960079,1035.960079,1035.960079,1035.960078,1035.960078,1035.960078,
   **   ~~~   ** Supply-to-demand interface deck 1 energy check value iteration history trace: 1875.749245,1875.749245,1875.749244,1875.749244,1875.749244,1875.749244,1875.749244,1875.749244,1875.749244,1875.749244,
   ** Warning ** SimHVAC: Maximum iterations (20) exceeded for all HVAC loops, at ANNUAL, 01/09 09:30 - 09:45
   **   ~~~   ** The solution for one or more of the Air Loop HVAC systems did not appear to converge
   **   ~~~   ** Air System Named = CENTRAL SYSTEM did not converge for mass flow rate
   **   ~~~   ** Check values should be zero. Most Recent values listed first.
   **   ~~~   ** Demand-to-Supply interface mass flow rate check value iteration history trace: 6.753290E-002,6.753290E-002,6.753290E-002,6.753290E-002,6.753290E-002,6.753290E-002,6.753290E-002,6.753290E-002,6.753290E-002,6.753290E-002,
   **   ~~~   ** Supply-to-demand interface deck 1 mass flow rate check value iteration history trace: 6.753290E-002,6.753290E-002,6.753290E-002,6.753290E-002,6.753290E-002,6.753290E-002,6.753290E-002,6.753290E-002,6.753290E-002,6.753290E-002,
   **   ~~~   ** Air System Named = CENTRAL SYSTEM did not converge for energy
   **   ~~~   ** Check values should be zero. Most Recent values listed first.
   **   ~~~   ** Demand-to-Supply interface energy check value iteration history trace: 1338.614034,1338.614034,1338.614034,1338.614034,1338.614034,1338.614033,1338.614033,1338.614033,1338.614033,1338.614033,
   **   ~~~   ** Supply-to-demand interface deck 1 energy check value iteration history trace: 2270.873293,2270.873292,2270.873292,2270.873292,2270.873292,2270.873292,2270.873292,2270.873292,2270.873292,2270.873291,
   ** Warning ** SimHVAC: Maximum iterations (20) exceeded for all HVAC loops, at ANNUAL, 01/18 15:23 - 15:30
   **   ~~~   ** The solution for one or more of the Air Loop HVAC systems did not appear to converge
   **   ~~~   ** Air System Named = CENTRAL SYSTEM did not converge for mass flow rate
   **   ~~~   ** Check values should be zero. Most Recent values listed first.
   **   ~~~   ** Demand-to-Supply interface mass flow rate check value iteration history trace: 7.064365E-002,7.064365E-002,7.064365E-002,7.064365E-002,7.064365E-002,7.064365E-002,7.064365E-002,7.064365E-002,7.064365E-002,7.064365E-002,
   **   ~~~   ** Supply-to-demand interface deck 1 mass flow rate check value iteration history trace: 7.064365E-002,7.064365E-002,7.064365E-002,7.064365E-002,7.064365E-002,7.064365E-002,7.064365E-002,7.064365E-002,7.064365E-002,7.064365E-002,
   **   ~~~   ** Air System Named = CENTRAL SYSTEM did not converge for energy
   **   ~~~   ** Check values should be zero. Most Recent values listed first.
   **   ~~~   ** Demand-to-Supply interface energy check value iteration history trace: 1394.795554,1394.795554,1394.795554,1394.795554,1394.795553,1394.795553,1394.795553,1394.795553,1394.795553,1394.795553,
   **   ~~~   ** Supply-to-demand interface deck 1 energy check value iteration history trace: 2107.691730,2107.691730,2107.691730,2107.691730,2107.691730,2107.691730,2107.691730,2107.691730,2107.691729,2107.691729,
   ** Warning ** SimHVAC: Maximum iterations (20) exceeded for all HVAC loops, at ANNUAL, 01/23 14:38 - 14:45
   **   ~~~   ** The solution for one or more of the Air Loop HVAC systems did not appear to converge
   **   ~~~   ** Air System Named = CENTRAL SYSTEM did not converge for mass flow rate
   **   ~~~   ** Check values should be zero. Most Recent values listed first.
   **   ~~~   ** Demand-to-Supply interface mass flow rate check value iteration history trace: 6.961581E-002,6.961581E-002,6.961581E-002,6.961581E-002,6.961581E-002,6.961581E-002,6.961581E-002,6.961581E-002,6.961581E-002,6.961581E-002,
   **   ~~~   ** Supply-to-demand interface deck 1 mass flow rate check value iteration history trace: 6.961581E-002,6.961581E-002,6.961581E-002,6.961581E-002,6.961581E-002,6.961581E-002,6.961581E-002,6.961581E-002,6.961581E-002,6.961581E-002,
   **   ~~~   ** Air System Named = CENTRAL SYSTEM did not converge for energy
   **   ~~~   ** Check values should be zero. Most Recent values listed first.
   **   ~~~   ** Demand-to-Supply interface energy check value iteration history trace: 1379.237838,1379.237838,1379.237838,1379.237838,1379.237838,1379.237837,1379.237837,1379.237837,1379.237837,1379.237837,
   **   ~~~   ** Supply-to-demand interface deck 1 energy check value iteration history trace: 2074.094587,2074.094587,2074.094586,2074.094586,2074.094586,2074.094586,2074.094586,2074.094586,2074.094586,2074.094585,
   ** Warning ** SimHVAC: Maximum iterations (20) exceeded for all HVAC loops, at ANNUAL, 02/07 19:45 - 20:00
   **   ~~~   ** The solution for one or more of the Air Loop HVAC systems did not appear to converge
   **   ~~~   ** Air System Named = CENTRAL SYSTEM did not converge for mass flow rate
   **   ~~~   ** Check values should be zero. Most Recent values listed first.
   **   ~~~   ** Demand-to-Supply interface mass flow rate check value iteration history trace: 6.539410E-002,6.539410E-002,6.539410E-002,6.539410E-002,6.539410E-002,6.539410E-002,6.539410E-002,6.539410E-002,6.539410E-002,6.539410E-002,
   **   ~~~   ** Supply-to-demand interface deck 1 mass flow rate check value iteration history trace: 6.539410E-002,6.539410E-002,6.539410E-002,6.539410E-002,6.539410E-002,6.539410E-002,6.539410E-002,6.539410E-002,6.539410E-002,6.539410E-002,
   **   ~~~   ** Air System Named = CENTRAL SYSTEM did not converge for energy
   **   ~~~   ** Check values should be zero. Most Recent values listed first.
   **   ~~~   ** Demand-to-Supply interface energy check value iteration history trace: 1297.266353,1297.266353,1297.266353,1297.266353,1297.266353,1297.266353,1297.266353,1297.266353,1297.266353,1297.266353,
   **   ~~~   ** Supply-to-demand interface deck 1 energy check value iteration history trace: 2253.081652,2253.081652,2253.081652,2253.081652,2253.081651,2253.081651,2253.081651,2253.081651,2253.081651,2253.081651,
   ** Warning ** SimHVAC: Maximum iterations (20) exceeded for all HVAC loops, at ANNUAL, 02/07 20:15 - 20:30
   **   ~~~   ** The solution for one or more of the Air Loop HVAC systems did not appear to converge
   **   ~~~   ** Air System Named = CENTRAL SYSTEM did not converge for mass flow rate
   **   ~~~   ** Check values should be zero. Most Recent values listed first.
   **   ~~~   ** Demand-to-Supply interface mass flow rate check value iteration history trace: 6.430444E-002,6.430444E-002,6.430444E-002,6.430444E-002,6.430444E-002,6.430444E-002,6.430444E-002,6.430444E-002,6.430444E-002,6.430444E-002,
   **   ~~~   ** Supply-to-demand interface deck 1 mass flow rate check value iteration history trace: 6.430444E-002,6.430444E-002,6.430444E-002,6.430444E-002,6.430444E-002,6.430444E-002,6.430444E-002,6.430444E-002,6.430444E-002,6.430444E-002,
   **   ~~~   ** Air System Named = CENTRAL SYSTEM did not converge for energy
   **   ~~~   ** Check values should be zero. Most Recent values listed first.
   **   ~~~   ** Demand-to-Supply interface energy check value iteration history trace: 1275.162381,1275.162381,1275.162381,1275.162381,1275.162381,1275.162381,1275.162381,1275.162381,1275.162381,1275.162381,
   **   ~~~   ** Supply-to-demand interface deck 1 energy check value iteration history trace: 2215.186496,2215.186496,2215.186496,2215.186496,2215.186496,2215.186496,2215.186495,2215.186495,2215.186495,2215.186495,
   ** Warning ** SimHVAC: Maximum iterations (20) exceeded for all HVAC loops, at ANNUAL, 02/08 10:55 - 11:00
   **   ~~~   ** The solution for one or more of the Air Loop HVAC systems did not appear to converge
   **   ~~~   ** Air System Named = CENTRAL SYSTEM did not converge for mass flow rate
   **   ~~~   ** Check values should be zero. Most Recent values listed first.
   **   ~~~   ** Demand-to-Supply interface mass flow rate check value iteration history trace: 6.446956E-002,6.446956E-002,6.446956E-002,6.446956E-002,6.446956E-002,6.446956E-002,6.446956E-002,6.446956E-002,6.446956E-002,6.446956E-002,
   **   ~~~   ** Supply-to-demand interface deck 1 mass flow rate check value iteration history trace: 6.446956E-002,6.446956E-002,6.446956E-002,6.446956E-002,6.446956E-002,6.446956E-002,6.446956E-002,6.446956E-002,6.446956E-002,6.446956E-002,
   **   ~~~   ** Air System Named = CENTRAL SYSTEM did not converge for energy
   **   ~~~   ** Check values should be zero. Most Recent values listed first.
   **   ~~~   ** Demand-to-Supply interface energy check value iteration history trace: 1266.896269,1266.896269,1266.896268,1266.896268,1266.896268,1266.896268,1266.896268,1266.896268,1266.896268,1266.896268,
   **   ~~~   ** Supply-to-demand interface deck 1 energy check value iteration history trace: 2171.511471,2171.511471,2171.511471,2171.511471,2171.511471,2171.511470,2171.511470,2171.511470,2171.511470,2171.511470,
   ** Warning ** SimHVAC: Maximum iterations (20) exceeded for all HVAC loops, at ANNUAL, 02/17 21:45 - 21:52
   **   ~~~   ** The solution for one or more of the Air Loop HVAC systems did not appear to converge
   **   ~~~   ** Air System Named = CENTRAL SYSTEM did not converge for mass flow rate
   **   ~~~   ** Check values should be zero. Most Recent values listed first.
   **   ~~~   ** Demand-to-Supply interface mass flow rate check value iteration history trace: 7.197414E-002,7.197414E-002,7.197414E-002,7.197414E-002,7.197414E-002,7.197414E-002,7.197414E-002,7.197414E-002,7.197414E-002,7.197414E-002,
   **   ~~~   ** Supply-to-demand interface deck 1 mass flow rate check value iteration history trace: 7.197414E-002,7.197414E-002,7.197414E-002,7.197414E-002,7.197414E-002,7.197414E-002,7.197414E-002,7.197414E-002,7.197414E-002,7.197414E-002,
   **   ~~~   ** Air System Named = CENTRAL SYSTEM did not converge for energy
   **   ~~~   ** Check values should be zero. Most Recent values listed first.
   **   ~~~   ** Demand-to-Supply interface energy check value iteration history trace: 1418.655413,1418.655413,1418.655413,1418.655413,1418.655412,1418.655412,1418.655412,1418.655412,1418.655412,1418.655412,
   **   ~~~   ** Supply-to-demand interface deck 1 energy check value iteration history trace: 2249.590534,2249.590533,2249.590533,2249.590533,2249.590533,2249.590533,2249.590533,2249.590533,2249.590532,2249.590532,
   ** Warning ** SimHVAC: Maximum iterations (20) exceeded for all HVAC loops, at ANNUAL, 03/01 11:41 - 11:45
   **   ~~~   ** The solution for one or more of the Air Loop HVAC systems did not appear to converge
   **   ~~~   ** Air System Named = CENTRAL SYSTEM did not converge for mass flow rate
   **   ~~~   ** Check values should be zero. Most Recent values listed first.
   **   ~~~   ** Demand-to-Supply interface mass flow rate check value iteration history trace: 6.923919E-002,6.923919E-002,6.923919E-002,6.923919E-002,6.923919E-002,6.923919E-002,6.923919E-002,6.923919E-002,6.923919E-002,6.923919E-002,
   **   ~~~   ** Supply-to-demand interface deck 1 mass flow rate check value iteration history trace: 6.923919E-002,6.923919E-002,6.923919E-002,6.923919E-002,6.923919E-002,6.923919E-002,6.923919E-002,6.923919E-002,6.923919E-002,6.923919E-002,
   **   ~~~   ** Air System Named = CENTRAL SYSTEM did not converge for energy
   **   ~~~   ** Check values should be zero. Most Recent values listed first.
   **   ~~~   ** Demand-to-Supply interface energy check value iteration history trace: 1369.708847,1369.708846,1369.708846,1369.708846,1369.708846,1369.708846,1369.708846,1369.708846,1369.708846,1369.708846,
   **   ~~~   ** Supply-to-demand interface deck 1 energy check value iteration history trace: 2129.031047,2129.031047,2129.031047,2129.031047,2129.031047,2129.031047,2129.031047,2129.031046,2129.031046,2129.031046,
   ** Warning ** SimHVAC: Maximum iterations (20) exceeded for all HVAC loops, at ANNUAL, 03/13 20:30 - 20:35
   **   ~~~   ** The solution for one or more of the Air Loop HVAC systems did not appear to converge
   **   ~~~   ** Air System Named = CENTRAL SYSTEM did not converge for mass flow rate
   **   ~~~   ** Check values should be zero. Most Recent values listed first.
   **   ~~~   ** Demand-to-Supply interface mass flow rate check value iteration history trace: 7.308347E-002,7.308347E-002,7.308347E-002,7.308347E-002,7.308347E-002,7.308347E-002,7.308347E-002,7.308347E-002,7.308347E-002,7.308347E-002,
   **   ~~~   ** Supply-to-demand interface deck 1 mass flow rate check value iteration history trace: 7.308347E-002,7.308347E-002,7.308347E-002,7.308347E-002,7.308347E-002,7.308347E-002,7.308347E-002,7.308347E-002,7.308347E-002,7.308347E-002,
   **   ~~~   ** Air System Named = CENTRAL SYSTEM did not converge for energy
   **   ~~~   ** Check values should be zero. Most Recent values listed first.
   **   ~~~   ** Demand-to-Supply interface energy check value iteration history trace: 1448.993490,1448.993490,1448.993490,1448.993490,1448.993490,1448.993490,1448.993490,1448.993490,1448.993490,1448.993490,
   **   ~~~   ** Supply-to-demand interface deck 1 energy check value iteration history trace: 2249.468778,2249.468778,2249.468778,2249.468778,2249.468778,2249.468778,2249.468777,2249.468777,2249.468777,2249.468777,
   ** Warning ** SimHVAC: Maximum iterations (20) exceeded for all HVAC loops, at ANNUAL, 04/08 09:00 - 09:05
   **   ~~~   ** The solution for one or more of the Air Loop HVAC systems did not appear to converge
   **   ~~~   ** Air System Named = CENTRAL SYSTEM did not converge for mass flow rate
   **   ~~~   ** Check values should be zero. Most Recent values listed first.
   **   ~~~   ** Demand-to-Supply interface mass flow rate check value iteration history trace: 5.520913E-002,5.520913E-002,5.520913E-002,5.520913E-002,5.520913E-002,5.520913E-002,5.520913E-002,5.520913E-002,5.520913E-002,5.520913E-002,
   **   ~~~   ** Supply-to-demand interface deck 1 mass flow rate check value iteration history trace: 5.520913E-002,5.520913E-002,5.520913E-002,5.520913E-002,5.520913E-002,5.520913E-002,5.520913E-002,5.520913E-002,5.520913E-002,5.520913E-002,
   **   ~~~   ** Air System Named = CENTRAL SYSTEM did not converge for energy
   **   ~~~   ** Check values should be zero. Most Recent values listed first.
   **   ~~~   ** Demand-to-Supply interface energy check value iteration history trace: 1086.722083,1086.722083,1086.722083,1086.722083,1086.722083,1086.722083,1086.722083,1086.722083,1086.722083,1086.722083,
   **   ~~~   ** Supply-to-demand interface deck 1 energy check value iteration history trace: 1936.065980,1936.065980,1936.065980,1936.065980,1936.065980,1936.065980,1936.065980,1936.065980,1936.065979,1936.065979,
   ** Warning ** SimHVAC: Maximum iterations (20) exceeded for all HVAC loops, at ANNUAL, 04/20 07:04 - 07:08
   **   ~~~   ** The solution for one or more of the Air Loop HVAC systems did not appear to converge
   **   ~~~   ** Air System Named = CENTRAL SYSTEM did not converge for mass flow rate
   **   ~~~   ** Check values should be zero. Most Recent values listed first.
   **   ~~~   ** Demand-to-Supply interface mass flow rate check value iteration history trace: 5.440999E-002,5.440999E-002,5.440999E-002,5.440999E-002,5.440999E-002,5.440999E-002,5.440999E-002,5.440999E-002,5.440999E-002,5.440999E-002,
   **   ~~~   ** Supply-to-demand interface deck 1 mass flow rate check value iteration history trace: 5.440999E-002,5.440999E-002,5.440999E-002,5.440999E-002,5.440999E-002,5.440999E-002,5.440999E-002,5.440999E-002,5.440999E-002,5.440999E-002,
   **   ~~~   ** Air System Named = CENTRAL SYSTEM did not converge for energy
   **   ~~~   ** Check values should be zero. Most Recent values listed first.
   **   ~~~   ** Demand-to-Supply interface energy check value iteration history trace: 1073.693281,1073.693280,1073.693280,1073.693280,1073.693280,1073.693280,1073.693280,1073.693280,1073.693280,1073.693280,
   **   ~~~   ** Supply-to-demand interface deck 1 energy check value iteration history trace: 1905.900319,1905.900318,1905.900318,1905.900318,1905.900318,1905.900318,1905.900318,1905.900318,1905.900318,1905.900318,
   ** Warning ** SimHVAC: Maximum iterations (20) exceeded for all HVAC loops, at ANNUAL, 05/10 09:23 - 09:26
   **   ~~~   ** The solution for one or more of the Air Loop HVAC systems did not appear to converge
   **   ~~~   ** Air System Named = CENTRAL SYSTEM did not converge for mass flow rate
   **   ~~~   ** Check values should be zero. Most Recent values listed first.
   **   ~~~   ** Demand-to-Supply interface mass flow rate check value iteration history trace: 0.149106,0.149106,0.149106,0.149106,0.149106,0.149106,0.149106,0.149106,0.149106,0.149106,
   **   ~~~   ** Supply-to-demand interface deck 1 mass flow rate check value iteration history trace: 0.149106,0.149106,0.149106,0.149106,0.149106,0.149106,0.149106,0.149106,0.149106,0.149106,
   **   ~~~   ** Air System Named = CENTRAL SYSTEM did not converge for energy
   **   ~~~   ** Check values should be zero. Most Recent values listed first.
   **   ~~~   ** Demand-to-Supply interface energy check value iteration history trace: 3534.226111,3534.226112,3534.226112,3534.226112,3534.226113,3534.226113,3534.226113,3534.226113,3534.226114,3534.226114,
   **   ~~~   ** Supply-to-demand interface deck 1 energy check value iteration history trace: 1954.568840,1954.568840,1954.568840,1954.568840,1954.568841,1954.568841,1954.568841,1954.568841,1954.568841,1954.568841,
   ************* Simulation Error Summary *************
   ** Warning ** The following Report Variables were requested but not generated -- check.rdd file
   **   ~~~   ** Either the IDF did not contain these elements, the variable name is misspelled,
   **   ~~~   ** or the requested variable is an advanced output which requires Output : Diagnostics, DisplayAdvancedReportVariables;
   ************* Key=*, VarName=BASEBOARD TOTAL HEATING ENERGY, Frequency=
   ************* Key=*, VarName=WATER HEATER NATURALGAS ENERGY, Frequency=
   ************* Key=*, VarName=COOLING COIL TOTAL HEATING ENERGY, Frequency=
   ************* There are 34 unused schedules in input.
   ************* There are 388 unused week schedules in input.
   ************* There are 397 unused day schedules in input.
   ************* Use Output:Diagnostics,DisplayUnusedSchedules; to see them.
   *************
   ************* ===== Recurring Error Summary =====
   ************* The following recurring error messages occurred.
   *************
   *************  ** Warning ** "TOTAL HOT WATER LOAD" - Target water temperature should be less than or equal to the hot water temperature error continues...
   *************  **   ~~~   **   This error occurred 94263 total times;
   *************  **   ~~~   **   during Warmup 0 times;
   *************  **   ~~~   **   during Sizing 0 times.
   *************  **   ~~~   **   Max=9.649253  Min=2.182367E-003
   *************
   *************  ** Warning ** SimHVAC: Exceeding Maximum iterations for all HVAC loops, during ANNUAL continues
   *************  **   ~~~   **   This error occurred 11 total times;
   *************  **   ~~~   **   during Warmup 0 times;
   *************  **   ~~~   **   during Sizing 0 times.
   *************
   *************
   ************* ===== Final Error Summary =====
   ************* The following error categories occurred.  Consider correcting or noting.
   ************* Loads Initialization did not Converge
   ************* ..1) very high thermal mass such as very thick concrete (solution: increase max number of warmup
   ************* ..   days in the BUILDING object);
   ************* ..2) moderate mass and inadequate space conditioning such that the building keeps getting warmer
   ************* ..   and warmer on successive days (solution: add HVAC, check building thermal properties,
   ************* ..   check if infiltration is included, make sure HVAC properly controlled);
   ************* ..3) a soil layer modeled below the concrete slab - (solution remove this layer and read about
   ************* ..   ground temperatures in the Auxiliary Programs document).
   ************* ..4) unreasonable (too small) limits in the BUILDING object for temperature (.4 default) or
   ************* ..   loads tolerances (.04 default)
   ************* Nominally Unused Constructions
   ************* ..The nominally unused constructions warning is provided to alert you to potential conditions that can cause
   ************* ..extra time during simulation. Each construction is calculated by the algorithm indicated in the HeatBalanceAlgorithm
   ************* ..object. You may remove the constructions indicated (when you use the DisplayExtraWarnings option).
   *************
   ************* EnergyPlus Warmup Error Summary. During Warmup: 1 Warning; 1 Severe Errors.
   ************* EnergyPlus Sizing Error Summary. During Sizing: 4 Warning; 0 Severe Errors.
   ************* EnergyPlus Completed Successfully-- 94307 Warning; 1 Severe Errors; Elapsed Time=00hr 01min 34.57sec
