Program Version,EnergyPlus, Version 22.2.0-c249759bad, YMD=2023.09.01 15:27,
   ************* Beginning Zone Sizing Calculations
   ** Warning ** ProcessScheduleInput: Schedule:Constant="ALWAYS ON DISCRETE", Schedule Type Limits Name="ONOFF" not found -- will not be validated
   ** Warning ** Foundation:Kiva="KIVA FOUNDATION", no Interior Horizontal Insulation Material Name defined
   **   ~~~   ** Interior Horizontal Insulation Depth will not be used.
   ** Warning ** CheckUsedConstructions: There are 15 nominally unused constructions in input.
   **   ~~~   ** Each Unused construction is shown.
   ************* Construction=INTERIOR FLOOR
   ************* Construction=INTERIOR WINDOW
   ************* Construction=EXTERIOR DOOR
   ************* Construction=INTERIOR DOOR
   ************* Construction=GABLE CONSTRUCTION
   ************* Construction=CRAWL_FLOOR
   ************* Construction=INSULATED PIPE
   ************* Construction=PLAIN PIPE
   ************* Construction=TDD PIPE
   ************* Construction=TDD DOME
   ************* Construction=TDD DIFFUSER
   ************* Construction=CRAWL WALL
   ************* Construction=CEILING-FLOOR-LAYER
   ************* Construction=SLAB CONSTRUCTION W FULL R10 INSULATION
   ************* Construction=SLAB CONSTRUCTION W FULL R5 INSULATION
   ** Warning ** GetDXCoils: Coil:Heating:DX:SingleSpeed="DX_HEATING_COIL" curve values
   **   ~~~   ** ... Defrost Energy Input Ratio Function of Temperature Curve Name = DEFROSTEIR output is not equal to 1.0 (+ or - 10%) at rated conditions.
   **   ~~~   ** ... Curve output at rated conditions = 0.152
   ************* Beginning System Sizing Calculations
   ************* Beginning Plant Sizing Calculations
   ** Warning ** SizeDXCoil Coil:Cooling:DX:SingleSpeed DX_COOLING_COIL
   **   ~~~   ** ...Gross Rated Total Cooling Capacity [W] will be limited by the maximum rated volume flow per rated total capacity ratio.
   **   ~~~   ** ...DX coil volume flow rate ( m3/s ) = 0.479310
   **   ~~~   ** ...Requested capacity ( W ) = 5795.060
   **   ~~~   ** ...Requested flow/capacity ratio ( m3/s/W ) = 8.271E-005
   **   ~~~   ** ...Maximum flow/capacity ratio ( m3/s/W ) = 6.041E-005
   **   ~~~   ** ...Adjusted capacity ( W ) = 7934.291
   ** Warning ** Coil:WaterHeating:AirToWaterHeatPump:Wrapped "HEAT PUMP WATER HEATER EVAPORATOR": Rated air volume flow rate per watt of rated total water heating capacity is out of range
   **   ~~~   ** Min Rated Vol Flow Per Watt=[4.027E-005], Rated Vol Flow Per Watt=[1.386E-004], Max Rated Vol Flow Per Watt=[8.056E-005]. See Input-Output Reference Manual for valid range.
   ** Warning ** Water heater = WATER HEATER TANK:  Recovery Efficiency and Energy Factor could not be calculated during the test for standard ratings
   **   ~~~   ** Setpoint was never recovered and/or heater never turned on
   ** Warning ** Check input. Pump nominal power or motor efficiency is set to 0, for pump=MAINS PRESSURE
   ** Warning ** Output:Meter: invalid Key Name="ELECTRIC_RANGE:INTERIOREQUIPMENT:ELECTRICITY" - not found.
   ** Warning ** Output:Meter: invalid Key Name="ELECTRIC_DRYER:INTERIOREQUIPMENT:ELECTRICITY" - not found.
   ** Warning ** Output:Meter: invalid Key Name="HEATRECOVERY:ELECTRICITY" - not found.
   ** Warning ** Output:Meter: invalid Key Name="HEATING:NATURALGAS" - not found.
   ** Warning ** Output:Meter: invalid Key Name="WATERSYSTEMS:NATURALGAS" - not found.
   ** Warning ** Output:Meter: invalid Key Name="PROPANE:FACILITY" - not found.
   ** Warning ** Output:Meter: invalid Key Name="HEATING:PROPANE" - not found.
   ************* Testing Individual Branch Integrity
   ************* All Branches passed integrity testing
   ************* Testing Individual Supply Air Path Integrity
   ************* All Supply Air Paths passed integrity testing
   ************* Testing Individual Return Air Path Integrity
   ************* All Return Air Paths passed integrity testing
   ************* No node connection errors were found.
   ************* Beginning Simulation
   ** Warning ** AirflowNetwork::Solver::validate_distribution: Heat pump water heater is simulated along with an AirflowNetwork but is not included in the AirflowNetwork.
   ** Warning ** CalcEquipmentFlowRates: "TOTAL HOT WATER LOAD" - Target water temperature is greater than the hot water temperature by (1.77 C)
   **   ~~~   **  Environment=EXTREME_WINTER, at Simulation time=01/01 06:00 - 06:15
   **   ~~~   ** ...target water temperature     = 53.33 C
   **   ~~~   ** ...hot water temperature        = 51.56 C
   **   ~~~   ** ...Target water temperature should be less than or equal to the hot water temperature. Verify temperature setpoints and schedules.
   ** Warning ** SimHVAC: Maximum iterations (20) exceeded for all HVAC loops, at ANNUAL, 03/16 16:53 - 17:00
   **   ~~~   ** The solution for one or more of the Air Loop HVAC systems did not appear to converge
   **   ~~~   ** Air System Named = CENTRAL SYSTEM did not converge for mass flow rate
   **   ~~~   ** Check values should be zero. Most Recent values listed first.
   **   ~~~   ** Demand-to-Supply interface mass flow rate check value iteration history trace: 5.886922E-002,5.886922E-002,5.886922E-002,5.886922E-002,5.886922E-002,5.886922E-002,5.886922E-002,5.886922E-002,5.886922E-002,5.886922E-002,
   **   ~~~   ** Supply-to-demand interface deck 1 mass flow rate check value iteration history trace: 5.886922E-002,5.886922E-002,5.886922E-002,5.886922E-002,5.886922E-002,5.886922E-002,5.886922E-002,5.886922E-002,5.886922E-002,5.886922E-002,
   **   ~~~   ** Air System Named = CENTRAL SYSTEM did not converge for energy
   **   ~~~   ** Check values should be zero. Most Recent values listed first.
   **   ~~~   ** Demand-to-Supply interface energy check value iteration history trace: 1149.633867,1149.633867,1149.633867,1149.633867,1149.633867,1149.633867,1149.633867,1149.633867,1149.633867,1149.633867,
   **   ~~~   ** Supply-to-demand interface deck 1 energy check value iteration history trace: 2164.455468,2164.455468,2164.455468,2164.455468,2164.455468,2164.455468,2164.455468,2164.455468,2164.455468,2164.455468,
   ** Warning ** SimHVAC: Maximum iterations (20) exceeded for all HVAC loops, at ANNUAL, 04/08 18:53 - 19:00
   **   ~~~   ** The solution for one or more of the Air Loop HVAC systems did not appear to converge
   **   ~~~   ** Air System Named = CENTRAL SYSTEM did not converge for mass flow rate
   **   ~~~   ** Check values should be zero. Most Recent values listed first.
   **   ~~~   ** Demand-to-Supply interface mass flow rate check value iteration history trace: 8.871448E-002,8.871448E-002,8.871448E-002,8.871448E-002,8.871448E-002,8.871448E-002,8.871448E-002,8.871448E-002,8.871448E-002,8.871448E-002,
   **   ~~~   ** Supply-to-demand interface deck 1 mass flow rate check value iteration history trace: 8.871448E-002,8.871448E-002,8.871448E-002,8.871448E-002,8.871448E-002,8.871448E-002,8.871448E-002,8.871448E-002,8.871448E-002,8.871448E-002,
   **   ~~~   ** Air System Named = CENTRAL SYSTEM did not converge for energy
   **   ~~~   ** Check values should be zero. Most Recent values listed first.
   **   ~~~   ** Demand-to-Supply interface energy check value iteration history trace: 1756.508027,1756.508027,1756.508027,1756.508027,1756.508027,1756.508027,1756.508026,1756.508026,1756.508026,1756.508026,
   **   ~~~   ** Supply-to-demand interface deck 1 energy check value iteration history trace: 2911.168048,2911.168048,2911.168048,2911.168048,2911.168048,2911.168048,2911.168047,2911.168047,2911.168047,2911.168047,
   ** Warning ** SimHVAC: Maximum iterations (20) exceeded for all HVAC loops, at ANNUAL, 04/11 20:55 - 21:00
   **   ~~~   ** The solution for one or more of the Air Loop HVAC systems did not appear to converge
   **   ~~~   ** Air System Named = CENTRAL SYSTEM did not converge for mass flow rate
   **   ~~~   ** Check values should be zero. Most Recent values listed first.
   **   ~~~   ** Demand-to-Supply interface mass flow rate check value iteration history trace: 8.116271E-002,8.116271E-002,8.116271E-002,8.116271E-002,8.116271E-002,8.116271E-002,8.116271E-002,8.116271E-002,8.116271E-002,8.116271E-002,
   **   ~~~   ** Supply-to-demand interface deck 1 mass flow rate check value iteration history trace: 8.116271E-002,8.116271E-002,8.116271E-002,8.116271E-002,8.116271E-002,8.116271E-002,8.116271E-002,8.116271E-002,8.116271E-002,8.116271E-002,
   **   ~~~   ** Air System Named = CENTRAL SYSTEM did not converge for energy
   **   ~~~   ** Check values should be zero. Most Recent values listed first.
   **   ~~~   ** Demand-to-Supply interface energy check value iteration history trace: 1602.899452,1602.899452,1602.899452,1602.899452,1602.899452,1602.899452,1602.899451,1602.899451,1602.899451,1602.899451,
   **   ~~~   ** Supply-to-demand interface deck 1 energy check value iteration history trace: 2551.389895,2551.389895,2551.389895,2551.389895,2551.389895,2551.389895,2551.389895,2551.389895,2551.389894,2551.389894,
   ** Warning ** SimHVAC: Maximum iterations (20) exceeded for all HVAC loops, at ANNUAL, 04/20 20:30 - 20:45
   **   ~~~   ** The solution for one or more of the Air Loop HVAC systems did not appear to converge
   **   ~~~   ** Air System Named = CENTRAL SYSTEM did not converge for mass flow rate
   **   ~~~   ** Check values should be zero. Most Recent values listed first.
   **   ~~~   ** Demand-to-Supply interface mass flow rate check value iteration history trace: 6.713130E-002,6.713130E-002,6.713130E-002,6.713130E-002,6.713130E-002,6.713130E-002,6.713130E-002,6.713130E-002,6.713130E-002,6.713130E-002,
   **   ~~~   ** Supply-to-demand interface deck 1 mass flow rate check value iteration history trace: 6.713130E-002,6.713130E-002,6.713130E-002,6.713130E-002,6.713130E-002,6.713130E-002,6.713130E-002,6.713130E-002,6.713130E-002,6.713130E-002,
   **   ~~~   ** Air System Named = CENTRAL SYSTEM did not converge for energy
   **   ~~~   ** Check values should be zero. Most Recent values listed first.
   **   ~~~   ** Demand-to-Supply interface energy check value iteration history trace: 1327.537342,1327.537342,1327.537342,1327.537342,1327.537342,1327.537342,1327.537342,1327.537342,1327.537341,1327.537341,
   **   ~~~   ** Supply-to-demand interface deck 1 energy check value iteration history trace: 2104.265561,2104.265561,2104.265561,2104.265561,2104.265561,2104.265560,2104.265560,2104.265560,2104.265560,2104.265560,
   ** Warning ** SimHVAC: Maximum iterations (20) exceeded for all HVAC loops, at ANNUAL, 04/23 12:30 - 12:45
   **   ~~~   ** The solution for one or more of the Air Loop HVAC systems did not appear to converge
   **   ~~~   ** Air System Named = CENTRAL SYSTEM did not converge for mass flow rate
   **   ~~~   ** Check values should be zero. Most Recent values listed first.
   **   ~~~   ** Demand-to-Supply interface mass flow rate check value iteration history trace: 5.465984E-002,5.465984E-002,5.465984E-002,5.465984E-002,5.465984E-002,5.465984E-002,5.465984E-002,5.465984E-002,5.465984E-002,5.465984E-002,
   **   ~~~   ** Supply-to-demand interface deck 1 mass flow rate check value iteration history trace: 5.465984E-002,5.465984E-002,5.465984E-002,5.465984E-002,5.465984E-002,5.465984E-002,5.465984E-002,5.465984E-002,5.465984E-002,5.465984E-002,
   **   ~~~   ** Air System Named = CENTRAL SYSTEM did not converge for energy
   **   ~~~   ** Check values should be zero. Most Recent values listed first.
   **   ~~~   ** Demand-to-Supply interface energy check value iteration history trace: 1083.166534,1083.166534,1083.166534,1083.166534,1083.166534,1083.166534,1083.166534,1083.166534,1083.166534,1083.166534,
   **   ~~~   ** Supply-to-demand interface deck 1 energy check value iteration history trace: 2038.504984,2038.504984,2038.504984,2038.504984,2038.504984,2038.504984,2038.504983,2038.504983,2038.504983,2038.504983,
   ** Warning ** SimHVAC: Maximum iterations (20) exceeded for all HVAC loops, at ANNUAL, 04/23 13:23 - 13:26
   **   ~~~   ** The solution for one or more of the Air Loop HVAC systems did not appear to converge
   **   ~~~   ** Air System Named = CENTRAL SYSTEM did not converge for mass flow rate
   **   ~~~   ** Check values should be zero. Most Recent values listed first.
   **   ~~~   ** Demand-to-Supply interface mass flow rate check value iteration history trace: 4.858094E-002,4.858094E-002,4.858094E-002,4.858094E-002,4.858094E-002,4.858094E-002,4.858094E-002,4.858094E-002,4.858094E-002,4.858094E-002,
   **   ~~~   ** Supply-to-demand interface deck 1 mass flow rate check value iteration history trace: 4.858094E-002,4.858094E-002,4.858094E-002,4.858094E-002,4.858094E-002,4.858094E-002,4.858094E-002,4.858094E-002,4.858094E-002,4.858094E-002,
   **   ~~~   ** Air System Named = CENTRAL SYSTEM did not converge for energy
   **   ~~~   ** Check values should be zero. Most Recent values listed first.
   **   ~~~   ** Demand-to-Supply interface energy check value iteration history trace: 959.994179,959.994179,959.994179,959.994179,959.994179,959.994179,959.994179,959.994179,959.994179,959.994179,
   **   ~~~   ** Supply-to-demand interface deck 1 energy check value iteration history trace: 1804.141989,1804.141989,1804.141989,1804.141989,1804.141989,1804.141989,1804.141989,1804.141988,1804.141988,1804.141988,
   ** Warning ** SimHVAC: Maximum iterations (20) exceeded for all HVAC loops, at ANNUAL, 04/23 19:45 - 19:49
   **   ~~~   ** The solution for one or more of the Air Loop HVAC systems did not appear to converge
   **   ~~~   ** Air System Named = CENTRAL SYSTEM did not converge for mass flow rate
   **   ~~~   ** Check values should be zero. Most Recent values listed first.
   **   ~~~   ** Demand-to-Supply interface mass flow rate check value iteration history trace: 0.100326,0.100326,0.100326,0.100326,0.100326,0.100326,0.100326,0.100326,0.100326,0.100326,
   **   ~~~   ** Supply-to-demand interface deck 1 mass flow rate check value iteration history trace: 0.100326,0.100326,0.100326,0.100326,0.100326,0.100326,0.100326,0.100326,0.100326,0.100326,
   **   ~~~   ** Air System Named = CENTRAL SYSTEM did not converge for energy
   **   ~~~   ** Check values should be zero. Most Recent values listed first.
   **   ~~~   ** Demand-to-Supply interface energy check value iteration history trace: 1979.595005,1979.595005,1979.595004,1979.595004,1979.595004,1979.595004,1979.595004,1979.595004,1979.595004,1979.595004,
   **   ~~~   ** Supply-to-demand interface deck 1 energy check value iteration history trace: 3188.427442,3188.427442,3188.427442,3188.427442,3188.427441,3188.427441,3188.427441,3188.427441,3188.427441,3188.427441,
   ** Warning ** SimHVAC: Maximum iterations (20) exceeded for all HVAC loops, at ANNUAL, 05/06 08:23 - 08:25
   **   ~~~   ** The solution for one or more of the Air Loop HVAC systems did not appear to converge
   **   ~~~   ** Air System Named = CENTRAL SYSTEM did not converge for mass flow rate
   **   ~~~   ** Check values should be zero. Most Recent values listed first.
   **   ~~~   ** Demand-to-Supply interface mass flow rate check value iteration history trace: 6.008130E-002,6.008130E-002,6.008130E-002,6.008130E-002,6.008130E-002,6.008130E-002,6.008130E-002,6.008130E-002,6.008130E-002,6.008130E-002,
   **   ~~~   ** Supply-to-demand interface deck 1 mass flow rate check value iteration history trace: 6.008130E-002,6.008130E-002,6.008130E-002,6.008130E-002,6.008130E-002,6.008130E-002,6.008130E-002,6.008130E-002,6.008130E-002,6.008130E-002,
   **   ~~~   ** Air System Named = CENTRAL SYSTEM did not converge for energy
   **   ~~~   ** Check values should be zero. Most Recent values listed first.
   **   ~~~   ** Demand-to-Supply interface energy check value iteration history trace: 1188.908100,1188.908100,1188.908100,1188.908100,1188.908100,1188.908100,1188.908100,1188.908100,1188.908099,1188.908099,
   **   ~~~   ** Supply-to-demand interface deck 1 energy check value iteration history trace: 2309.741393,2309.741393,2309.741393,2309.741393,2309.741393,2309.741393,2309.741393,2309.741393,2309.741392,2309.741392,
   ** Warning ** SimHVAC: Maximum iterations (20) exceeded for all HVAC loops, at ANNUAL, 05/13 08:17 - 08:18
   **   ~~~   ** The solution for one or more of the Air Loop HVAC systems did not appear to converge
   **   ~~~   ** Air System Named = CENTRAL SYSTEM did not converge for mass flow rate
   **   ~~~   ** Check values should be zero. Most Recent values listed first.
   **   ~~~   ** Demand-to-Supply interface mass flow rate check value iteration history trace: 6.967318E-002,6.967318E-002,6.967318E-002,6.967318E-002,6.967318E-002,6.967318E-002,6.967318E-002,6.967318E-002,6.967318E-002,6.967318E-002,
   **   ~~~   ** Supply-to-demand interface deck 1 mass flow rate check value iteration history trace: 6.967318E-002,6.967318E-002,6.967318E-002,6.967318E-002,6.967318E-002,6.967318E-002,6.967318E-002,6.967318E-002,6.967318E-002,6.967318E-002,
   **   ~~~   ** Air System Named = CENTRAL SYSTEM did not converge for energy
   **   ~~~   ** Check values should be zero. Most Recent values listed first.
   **   ~~~   ** Demand-to-Supply interface energy check value iteration history trace: 1380.817002,1380.817002,1380.817002,1380.817002,1380.817002,1380.817002,1380.817001,1380.817001,1380.817001,1380.817001,
   **   ~~~   ** Supply-to-demand interface deck 1 energy check value iteration history trace: 2351.222051,2351.222050,2351.222050,2351.222050,2351.222050,2351.222050,2351.222050,2351.222050,2351.222050,2351.222050,
   ** Warning ** SimHVAC: Maximum iterations (20) exceeded for all HVAC loops, at ANNUAL, 05/15 06:53 - 06:55
   **   ~~~   ** The solution for one or more of the Air Loop HVAC systems did not appear to converge
   **   ~~~   ** Air System Named = CENTRAL SYSTEM did not converge for mass flow rate
   **   ~~~   ** Check values should be zero. Most Recent values listed first.
   **   ~~~   ** Demand-to-Supply interface mass flow rate check value iteration history trace: 6.925840E-002,6.925840E-002,6.925840E-002,6.925840E-002,6.925840E-002,6.925840E-002,6.925840E-002,6.925840E-002,6.925840E-002,6.925840E-002,
   **   ~~~   ** Supply-to-demand interface deck 1 mass flow rate check value iteration history trace: 6.925840E-002,6.925840E-002,6.925840E-002,6.925840E-002,6.925840E-002,6.925840E-002,6.925840E-002,6.925840E-002,6.925840E-002,6.925840E-002,
   **   ~~~   ** Air System Named = CENTRAL SYSTEM did not converge for energy
   **   ~~~   ** Check values should be zero. Most Recent values listed first.
   **   ~~~   ** Demand-to-Supply interface energy check value iteration history trace: 1370.176356,1370.176356,1370.176356,1370.176355,1370.176355,1370.176355,1370.176355,1370.176355,1370.176355,1370.176355,
   **   ~~~   ** Supply-to-demand interface deck 1 energy check value iteration history trace: 2528.214274,2528.214274,2528.214274,2528.214273,2528.214273,2528.214273,2528.214273,2528.214273,2528.214273,2528.214273,
   ** Warning ** SimHVAC: Maximum iterations (20) exceeded for all HVAC loops, at ANNUAL, 05/27 08:45 - 09:00
   **   ~~~   ** The solution for one or more of the Air Loop HVAC systems did not appear to converge
   **   ~~~   ** Air System Named = CENTRAL SYSTEM did not converge for mass flow rate
   **   ~~~   ** Check values should be zero. Most Recent values listed first.
   **   ~~~   ** Demand-to-Supply interface mass flow rate check value iteration history trace: 6.855983E-002,6.855983E-002,6.855983E-002,6.855983E-002,6.855983E-002,6.855983E-002,6.855983E-002,6.855983E-002,6.855983E-002,6.855983E-002,
   **   ~~~   ** Supply-to-demand interface deck 1 mass flow rate check value iteration history trace: 6.855983E-002,6.855983E-002,6.855983E-002,6.855983E-002,6.855983E-002,6.855983E-002,6.855983E-002,6.855983E-002,6.855983E-002,6.855983E-002,
   **   ~~~   ** Air System Named = CENTRAL SYSTEM did not converge for energy
   **   ~~~   ** Check values should be zero. Most Recent values listed first.
   **   ~~~   ** Demand-to-Supply interface energy check value iteration history trace: 1358.670141,1358.670141,1358.670141,1358.670141,1358.670141,1358.670141,1358.670141,1358.670141,1358.670141,1358.670141,
   **   ~~~   ** Supply-to-demand interface deck 1 energy check value iteration history trace: 2503.714320,2503.714319,2503.714319,2503.714319,2503.714319,2503.714319,2503.714319,2503.714319,2503.714319,2503.714319,
   ** Warning ** SimHVAC: Maximum iterations (20) exceeded for all HVAC loops, at ANNUAL, 05/30 07:00 - 07:01
   **   ~~~   ** The solution for one or more of the Air Loop HVAC systems did not appear to converge
   **   ~~~   ** Air System Named = CENTRAL SYSTEM did not converge for mass flow rate
   **   ~~~   ** Check values should be zero. Most Recent values listed first.
   **   ~~~   ** Demand-to-Supply interface mass flow rate check value iteration history trace: 9.000678E-002,9.000678E-002,9.000678E-002,9.000678E-002,9.000678E-002,9.000678E-002,9.000678E-002,9.000678E-002,9.000678E-002,9.000678E-002,
   **   ~~~   ** Supply-to-demand interface deck 1 mass flow rate check value iteration history trace: 9.000678E-002,9.000678E-002,9.000678E-002,9.000678E-002,9.000678E-002,9.000678E-002,9.000678E-002,9.000678E-002,9.000678E-002,9.000678E-002,
   **   ~~~   ** Air System Named = CENTRAL SYSTEM did not converge for energy
   **   ~~~   ** Check values should be zero. Most Recent values listed first.
   **   ~~~   ** Demand-to-Supply interface energy check value iteration history trace: 1783.656888,1783.656888,1783.656888,1783.656888,1783.656887,1783.656887,1783.656887,1783.656887,1783.656887,1783.656887,
   **   ~~~   ** Supply-to-demand interface deck 1 energy check value iteration history trace: 2937.039988,2937.039988,2937.039988,2937.039988,2937.039987,2937.039987,2937.039987,2937.039987,2937.039987,2937.039987,
   ** Warning ** SimHVAC: Maximum iterations (20) exceeded for all HVAC loops, at ANNUAL, 06/01 07:15 - 07:30
   **   ~~~   ** The solution for one or more of the Air Loop HVAC systems did not appear to converge
   **   ~~~   ** Air System Named = CENTRAL SYSTEM did not converge for mass flow rate
   **   ~~~   ** Check values should be zero. Most Recent values listed first.
   **   ~~~   ** Demand-to-Supply interface mass flow rate check value iteration history trace: 8.984390E-002,8.984390E-002,8.984390E-002,8.984390E-002,8.984390E-002,8.984390E-002,8.984390E-002,8.984390E-002,8.984390E-002,8.984390E-002,
   **   ~~~   ** Supply-to-demand interface deck 1 mass flow rate check value iteration history trace: 8.984390E-002,8.984390E-002,8.984390E-002,8.984390E-002,8.984390E-002,8.984390E-002,8.984390E-002,8.984390E-002,8.984390E-002,8.984390E-002,
   **   ~~~   ** Air System Named = CENTRAL SYSTEM did not converge for energy
   **   ~~~   ** Check values should be zero. Most Recent values listed first.
   **   ~~~   ** Demand-to-Supply interface energy check value iteration history trace: 1780.366682,1780.366681,1780.366681,1780.366681,1780.366681,1780.366681,1780.366681,1780.366681,1780.366681,1780.366681,
   **   ~~~   ** Supply-to-demand interface deck 1 energy check value iteration history trace: 2922.955462,2922.955462,2922.955462,2922.955462,2922.955462,2922.955462,2922.955462,2922.955462,2922.955461,2922.955461,
   ** Warning ** SimHVAC: Maximum iterations (20) exceeded for all HVAC loops, at ANNUAL, 07/07 23:10 - 23:15
   **   ~~~   ** The solution for one or more of the Air Loop HVAC systems did not appear to converge
   **   ~~~   ** Air System Named = CENTRAL SYSTEM did not converge for mass flow rate
   **   ~~~   ** Check values should be zero. Most Recent values listed first.
   **   ~~~   ** Demand-to-Supply interface mass flow rate check value iteration history trace: 4.544723E-002,4.544723E-002,4.544723E-002,4.544723E-002,4.544723E-002,4.544723E-002,4.544723E-002,4.544723E-002,4.544723E-002,4.544723E-002,
   **   ~~~   ** Supply-to-demand interface deck 1 mass flow rate check value iteration history trace: 4.544723E-002,4.544723E-002,4.544723E-002,4.544723E-002,4.544723E-002,4.544723E-002,4.544723E-002,4.544723E-002,4.544723E-002,4.544723E-002,
   **   ~~~   ** Air System Named = CENTRAL SYSTEM did not converge for energy
   **   ~~~   ** Check values should be zero. Most Recent values listed first.
   **   ~~~   ** Demand-to-Supply interface energy check value iteration history trace: 1134.617018,1134.617018,1134.617018,1134.617019,1134.617019,1134.617019,1134.617019,1134.617019,1134.617019,1134.617019,
   **   ~~~   ** Supply-to-demand interface deck 1 energy check value iteration history trace: 362.427970,362.427970,362.427970,362.427970,362.427970,362.427970,362.427970,362.427970,362.427970,362.427970,
   ************* Simulation Error Summary *************
   ** Warning ** The following Report Variables were requested but not generated -- check.rdd file
   **   ~~~   ** Either the IDF did not contain these elements, the variable name is misspelled,
   **   ~~~   ** or the requested variable is an advanced output which requires Output : Diagnostics, DisplayAdvancedReportVariables;
   ************* Key=*, VarName=BASEBOARD TOTAL HEATING ENERGY, Frequency=
   ************* Key=*, VarName=WATER HEATER NATURALGAS ENERGY, Frequency=
   ************* Key=*, VarName=COOLING COIL TOTAL HEATING ENERGY, Frequency=
   ************* There are 34 unused schedules in input.
   ************* There are 388 unused week schedules in input.
   ************* There are 396 unused day schedules in input.
   ************* Use Output:Diagnostics,DisplayUnusedSchedules; to see them.
   *************
   ************* ===== Recurring Error Summary =====
   ************* The following recurring error messages occurred.
   *************
   *************  ** Warning ** "TOTAL HOT WATER LOAD" - Target water temperature should be less than or equal to the hot water temperature error continues...
   *************  **   ~~~   **   This error occurred 115337 total times;
   *************  **   ~~~   **   during Warmup 0 times;
   *************  **   ~~~   **   during Sizing 0 times.
   *************  **   ~~~   **   Max=12.453426  Min=3.641679E-005
   *************
   *************  ** Warning ** SimHVAC: Exceeding Maximum iterations for all HVAC loops, during ANNUAL continues
   *************  **   ~~~   **   This error occurred 9 total times;
   *************  **   ~~~   **   during Warmup 0 times;
   *************  **   ~~~   **   during Sizing 0 times.
   *************
   *************
   ************* ===== Final Error Summary =====
   ************* The following error categories occurred.  Consider correcting or noting.
   ************* Nominally Unused Constructions
   ************* ..The nominally unused constructions warning is provided to alert you to potential conditions that can cause
   ************* ..extra time during simulation. Each construction is calculated by the algorithm indicated in the HeatBalanceAlgorithm
   ************* ..object. You may remove the constructions indicated (when you use the DisplayExtraWarnings option).
   *************
   ************* EnergyPlus Warmup Error Summary. During Warmup: 1 Warning; 0 Severe Errors.
   ************* EnergyPlus Sizing Error Summary. During Sizing: 4 Warning; 0 Severe Errors.
   ************* EnergyPlus Completed Successfully-- 115378 Warning; 0 Severe Errors; Elapsed Time=00hr 05min  9.43sec
