Program Version,EnergyPlus, Version 22.2.0-c249759bad, YMD=2023.09.01 19:47,
   ************* Beginning Zone Sizing Calculations
   ** Warning ** ProcessScheduleInput: Schedule:Constant="ALWAYS ON DISCRETE", Schedule Type Limits Name="ONOFF" not found -- will not be validated
   ** Warning ** Foundation:Kiva="KIVA FOUNDATION", no Interior Horizontal Insulation Material Name defined
   **   ~~~   ** Interior Horizontal Insulation Depth will not be used.
   ** Warning ** CheckUsedConstructions: There are 15 nominally unused constructions in input.
   **   ~~~   ** Each Unused construction is shown.
   ************* Construction=INTERIOR FLOOR
   ************* Construction=INTERIOR WINDOW
   ************* Construction=EXTERIOR DOOR
   ************* Construction=INTERIOR DOOR
   ************* Construction=GABLE CONSTRUCTION
   ************* Construction=CRAWL_FLOOR
   ************* Construction=INSULATED PIPE
   ************* Construction=PLAIN PIPE
   ************* Construction=TDD PIPE
   ************* Construction=TDD DOME
   ************* Construction=TDD DIFFUSER
   ************* Construction=CRAWL WALL
   ************* Construction=CEILING-FLOOR-LAYER
   ************* Construction=SLAB CONSTRUCTION W FULL R10 INSULATION
   ************* Construction=SLAB CONSTRUCTION W FULL R5 INSULATION
   ** Warning ** GetDXCoils: Coil:Heating:DX:SingleSpeed="DX_HEATING_COIL" curve values
   **   ~~~   ** ... Defrost Energy Input Ratio Function of Temperature Curve Name = DEFROSTEIR output is not equal to 1.0 (+ or - 10%) at rated conditions.
   **   ~~~   ** ... Curve output at rated conditions = 0.152
   ************* Beginning System Sizing Calculations
   ************* Beginning Plant Sizing Calculations
   ** Warning ** Coil:WaterHeating:AirToWaterHeatPump:Wrapped "HEAT PUMP WATER HEATER EVAPORATOR": Rated air volume flow rate per watt of rated total water heating capacity is out of range
   **   ~~~   ** Min Rated Vol Flow Per Watt=[4.027E-005], Rated Vol Flow Per Watt=[1.510E-004], Max Rated Vol Flow Per Watt=[8.056E-005]. See Input-Output Reference Manual for valid range.
   ************* SizeFan: : Potential issue with equipment sizing for Fan:OnOff HEAT PUMP WATER HEATER FAN
   **   ~~~   ** User-Specified Maximum Flow Rate [m3/s] = 0.22653
   **   ~~~   ** differs from Design Size Maximum Flow Rate [m3/s] = 7.55250E-002
   **   ~~~   ** This may, or may not, indicate mismatched component sizes.
   **   ~~~   ** Verify that the value entered is intended and is consistent with other components.
   ** Warning ** Water heater = WATER HEATER TANK:  Recovery Efficiency and Energy Factor could not be calculated during the test for standard ratings
   **   ~~~   ** Setpoint was never recovered and/or heater never turned on
   ** Warning ** Check input. Pump nominal power or motor efficiency is set to 0, for pump=MAINS PRESSURE
   ** Warning ** Output:Meter: invalid Key Name="ELECTRIC_RANGE:INTERIOREQUIPMENT:ELECTRICITY" - not found.
   ** Warning ** Output:Meter: invalid Key Name="ELECTRIC_DRYER:INTERIOREQUIPMENT:ELECTRICITY" - not found.
   ** Warning ** Output:Meter: invalid Key Name="HEATRECOVERY:ELECTRICITY" - not found.
   ** Warning ** Output:Meter: invalid Key Name="HEATING:NATURALGAS" - not found.
   ** Warning ** Output:Meter: invalid Key Name="WATERSYSTEMS:NATURALGAS" - not found.
   ** Warning ** Output:Meter: invalid Key Name="PROPANE:FACILITY" - not found.
   ** Warning ** Output:Meter: invalid Key Name="HEATING:PROPANE" - not found.
   ************* Testing Individual Branch Integrity
   ************* All Branches passed integrity testing
   ************* Testing Individual Supply Air Path Integrity
   ************* All Supply Air Paths passed integrity testing
   ************* Testing Individual Return Air Path Integrity
   ************* All Return Air Paths passed integrity testing
   ************* No node connection errors were found.
   ************* Beginning Simulation
   ** Warning ** AirflowNetwork::Solver::validate_distribution: Heat pump water heater is simulated along with an AirflowNetwork but is not included in the AirflowNetwork.
   ** Warning ** CalcEquipmentFlowRates: "TOTAL HOT WATER LOAD" - Target water temperature is greater than the hot water temperature by (4.34 C)
   **   ~~~   **  Environment=EXTREME_WINTER, at Simulation time=01/27 06:00 - 06:15
   **   ~~~   ** ...target water temperature     = 53.33 C
   **   ~~~   ** ...hot water temperature        = 48.99 C
   **   ~~~   ** ...Target water temperature should be less than or equal to the hot water temperature. Verify temperature setpoints and schedules.
   ** Warning ** SimHVAC: Maximum iterations (20) exceeded for all HVAC loops, at EXTREME_WINTER, 01/27 09:45 - 10:00
   **   ~~~   ** The solution for one or more of the Air Loop HVAC systems did not appear to converge
   **   ~~~   ** Air System Named = CENTRAL SYSTEM did not converge for mass flow rate
   **   ~~~   ** Check values should be zero. Most Recent values listed first.
   **   ~~~   ** Demand-to-Supply interface mass flow rate check value iteration history trace: 9.188837E-002,9.188837E-002,9.188837E-002,9.188837E-002,9.188837E-002,9.188837E-002,9.188837E-002,9.188837E-002,9.188837E-002,9.188837E-002,
   **   ~~~   ** Supply-to-demand interface deck 1 mass flow rate check value iteration history trace: 9.188837E-002,9.188837E-002,9.188837E-002,9.188837E-002,9.188837E-002,9.188837E-002,9.188837E-002,9.188837E-002,9.188837E-002,9.188837E-002,
   **   ~~~   ** Air System Named = CENTRAL SYSTEM did not converge for energy
   **   ~~~   ** Check values should be zero. Most Recent values listed first.
   **   ~~~   ** Demand-to-Supply interface energy check value iteration history trace: 1820.499459,1820.499459,1820.499458,1820.499458,1820.499458,1820.499458,1820.499458,1820.499458,1820.499458,1820.499458,
   **   ~~~   ** Supply-to-demand interface deck 1 energy check value iteration history trace: 2816.917108,2816.917108,2816.917108,2816.917108,2816.917107,2816.917107,2816.917107,2816.917107,2816.917107,2816.917106,
   ** Warning ** SimHVAC: Maximum iterations (20) exceeded for all HVAC loops, at ANNUAL, 02/13 09:51 - 09:54
   **   ~~~   ** The solution for one or more of the Air Loop HVAC systems did not appear to converge
   **   ~~~   ** Air System Named = CENTRAL SYSTEM did not converge for mass flow rate
   **   ~~~   ** Check values should be zero. Most Recent values listed first.
   **   ~~~   ** Demand-to-Supply interface mass flow rate check value iteration history trace: 9.438664E-002,9.438664E-002,9.438664E-002,9.438664E-002,9.438664E-002,9.438664E-002,9.438664E-002,9.438664E-002,9.438664E-002,9.438664E-002,
   **   ~~~   ** Supply-to-demand interface deck 1 mass flow rate check value iteration history trace: 9.438664E-002,9.438664E-002,9.438664E-002,9.438664E-002,9.438664E-002,9.438664E-002,9.438664E-002,9.438664E-002,9.438664E-002,9.438664E-002,
   **   ~~~   ** Air System Named = CENTRAL SYSTEM did not converge for energy
   **   ~~~   ** Check values should be zero. Most Recent values listed first.
   **   ~~~   ** Demand-to-Supply interface energy check value iteration history trace: 1870.403988,1870.403988,1870.403988,1870.403988,1870.403988,1870.403988,1870.403988,1870.403987,1870.403987,1870.403987,
   **   ~~~   ** Supply-to-demand interface deck 1 energy check value iteration history trace: 2887.430398,2887.430397,2887.430397,2887.430397,2887.430397,2887.430397,2887.430396,2887.430396,2887.430396,2887.430396,
   ** Warning ** Temperature out of range [-100. to 200.] (PsyPsatFnTemp)
   **   ~~~   **  Routine=PsyTwbFnTdbWPb, Environment=ANNUAL, at Simulation time=02/14 12:00 - 12:03
   **   ~~~   **  Input Temperature=-323.73
   ** Warning ** SimHVAC: Maximum iterations (20) exceeded for all HVAC loops, at ANNUAL, 02/26 10:00 - 10:15
   **   ~~~   ** The solution for one or more of the Air Loop HVAC systems did not appear to converge
   **   ~~~   ** Air System Named = CENTRAL SYSTEM did not converge for mass flow rate
   **   ~~~   ** Check values should be zero. Most Recent values listed first.
   **   ~~~   ** Demand-to-Supply interface mass flow rate check value iteration history trace: 0.119213,0.119213,0.119213,0.119213,0.119213,0.119213,0.119213,0.119213,0.119213,0.119213,
   **   ~~~   ** Supply-to-demand interface deck 1 mass flow rate check value iteration history trace: 0.119213,0.119213,0.119213,0.119213,0.119213,0.119213,0.119213,0.119213,0.119213,0.119213,
   **   ~~~   ** Air System Named = CENTRAL SYSTEM did not converge for energy
   **   ~~~   ** Check values should be zero. Most Recent values listed first.
   **   ~~~   ** Demand-to-Supply interface energy check value iteration history trace: 2359.863635,2359.863635,2359.863635,2359.863635,2359.863635,2359.863634,2359.863634,2359.863634,2359.863634,2359.863634,
   **   ~~~   ** Supply-to-demand interface deck 1 energy check value iteration history trace: 3532.101675,3532.101675,3532.101674,3532.101674,3532.101674,3532.101674,3532.101673,3532.101673,3532.101673,3532.101673,
   ** Warning ** SimHVAC: Maximum iterations (20) exceeded for all HVAC loops, at ANNUAL, 03/07 20:00 - 20:15
   **   ~~~   ** The solution for one or more of the Air Loop HVAC systems did not appear to converge
   **   ~~~   ** Air System Named = CENTRAL SYSTEM did not converge for mass flow rate
   **   ~~~   ** Check values should be zero. Most Recent values listed first.
   **   ~~~   ** Demand-to-Supply interface mass flow rate check value iteration history trace: 2.840110E-002,2.840110E-002,2.840110E-002,2.840110E-002,2.840110E-002,2.840110E-002,2.840110E-002,2.840110E-002,2.840110E-002,2.840110E-002,
   **   ~~~   ** Supply-to-demand interface deck 1 mass flow rate check value iteration history trace: 2.840110E-002,2.840110E-002,2.840110E-002,2.840110E-002,2.840110E-002,2.840110E-002,2.840110E-002,2.840110E-002,2.840110E-002,2.840110E-002,
   **   ~~~   ** Air System Named = CENTRAL SYSTEM did not converge for energy
   **   ~~~   ** Check values should be zero. Most Recent values listed first.
   **   ~~~   ** Demand-to-Supply interface energy check value iteration history trace: 560.890201,560.890201,560.890201,560.890201,560.890201,560.890201,560.890201,560.890201,560.890201,560.890201,
   **   ~~~   ** Supply-to-demand interface deck 1 energy check value iteration history trace: 844.888852,844.888852,844.888852,844.888852,844.888852,844.888852,844.888852,844.888852,844.888852,844.888852,
   ** Warning ** SimHVAC: Maximum iterations (20) exceeded for all HVAC loops, at ANNUAL, 03/19 10:45 - 11:00
   **   ~~~   ** The solution for one or more of the Air Loop HVAC systems did not appear to converge
   **   ~~~   ** Air System Named = CENTRAL SYSTEM did not converge for mass flow rate
   **   ~~~   ** Check values should be zero. Most Recent values listed first.
   **   ~~~   ** Demand-to-Supply interface mass flow rate check value iteration history trace: 0.101351,0.101351,0.101351,0.101351,0.101351,0.101351,0.101351,0.101351,0.101351,0.101351,
   **   ~~~   ** Supply-to-demand interface deck 1 mass flow rate check value iteration history trace: 0.101351,0.101351,0.101351,0.101351,0.101351,0.101351,0.101351,0.101351,0.101351,0.101351,
   **   ~~~   ** Air System Named = CENTRAL SYSTEM did not converge for energy
   **   ~~~   ** Check values should be zero. Most Recent values listed first.
   **   ~~~   ** Demand-to-Supply interface energy check value iteration history trace: 2008.445790,2008.445789,2008.445789,2008.445789,2008.445789,2008.445789,2008.445789,2008.445789,2008.445789,2008.445788,
   **   ~~~   ** Supply-to-demand interface deck 1 energy check value iteration history trace: 3095.498427,3095.498427,3095.498427,3095.498426,3095.498426,3095.498426,3095.498426,3095.498426,3095.498425,3095.498425,
   ** Warning ** SimHVAC: Maximum iterations (20) exceeded for all HVAC loops, at ANNUAL, 03/30 14:30 - 14:35
   **   ~~~   ** The solution for one or more of the Air Loop HVAC systems did not appear to converge
   **   ~~~   ** Air System Named = CENTRAL SYSTEM did not converge for mass flow rate
   **   ~~~   ** Check values should be zero. Most Recent values listed first.
   **   ~~~   ** Demand-to-Supply interface mass flow rate check value iteration history trace: 7.858979E-002,7.858979E-002,7.858979E-002,7.858979E-002,7.858979E-002,7.858979E-002,7.858979E-002,7.858979E-002,7.858979E-002,7.858979E-002,
   **   ~~~   ** Supply-to-demand interface deck 1 mass flow rate check value iteration history trace: 7.858979E-002,7.858979E-002,7.858979E-002,7.858979E-002,7.858979E-002,7.858979E-002,7.858979E-002,7.858979E-002,7.858979E-002,7.858979E-002,
   **   ~~~   ** Air System Named = CENTRAL SYSTEM did not converge for energy
   **   ~~~   ** Check values should be zero. Most Recent values listed first.
   **   ~~~   ** Demand-to-Supply interface energy check value iteration history trace: 1557.159897,1557.159897,1557.159897,1557.159897,1557.159897,1557.159897,1557.159897,1557.159897,1557.159897,1557.159897,
   **   ~~~   ** Supply-to-demand interface deck 1 energy check value iteration history trace: 2373.695385,2373.695385,2373.695385,2373.695385,2373.695385,2373.695385,2373.695385,2373.695385,2373.695384,2373.695384,
   ** Warning ** SimHVAC: Maximum iterations (20) exceeded for all HVAC loops, at ANNUAL, 04/19 07:00 - 07:15
   **   ~~~   ** The solution for one or more of the Air Loop HVAC systems did not appear to converge
   **   ~~~   ** Air System Named = CENTRAL SYSTEM did not converge for mass flow rate
   **   ~~~   ** Check values should be zero. Most Recent values listed first.
   **   ~~~   ** Demand-to-Supply interface mass flow rate check value iteration history trace: 7.855533E-002,7.855533E-002,7.855533E-002,7.855533E-002,7.855533E-002,7.855532E-002,7.855532E-002,7.855532E-002,7.855532E-002,7.855532E-002,
   **   ~~~   ** Supply-to-demand interface deck 1 mass flow rate check value iteration history trace: 7.855533E-002,7.855533E-002,7.855533E-002,7.855533E-002,7.855533E-002,7.855532E-002,7.855532E-002,7.855532E-002,7.855532E-002,7.855532E-002,
   **   ~~~   ** Air System Named = CENTRAL SYSTEM did not converge for energy
   **   ~~~   ** Check values should be zero. Most Recent values listed first.
   **   ~~~   ** Demand-to-Supply interface energy check value iteration history trace: 1556.614645,1556.614645,1556.614645,1556.614644,1556.614644,1556.614644,1556.614644,1556.614644,1556.614644,1556.614644,
   **   ~~~   ** Supply-to-demand interface deck 1 energy check value iteration history trace: 2672.734428,2672.734427,2672.734427,2672.734427,2672.734427,2672.734427,2672.734427,2672.734427,2672.734427,2672.734426,
   ** Warning ** SimHVAC: Maximum iterations (20) exceeded for all HVAC loops, at ANNUAL, 04/24 08:15 - 08:30
   **   ~~~   ** The solution for one or more of the Air Loop HVAC systems did not appear to converge
   **   ~~~   ** Air System Named = CENTRAL SYSTEM did not converge for mass flow rate
   **   ~~~   ** Check values should be zero. Most Recent values listed first.
   **   ~~~   ** Demand-to-Supply interface mass flow rate check value iteration history trace: 8.312399E-002,8.312399E-002,8.312399E-002,8.312399E-002,8.312399E-002,8.312399E-002,8.312399E-002,8.312399E-002,8.312399E-002,8.312399E-002,
   **   ~~~   ** Supply-to-demand interface deck 1 mass flow rate check value iteration history trace: 8.312399E-002,8.312399E-002,8.312399E-002,8.312399E-002,8.312399E-002,8.312399E-002,8.312399E-002,8.312399E-002,8.312399E-002,8.312399E-002,
   **   ~~~   ** Air System Named = CENTRAL SYSTEM did not converge for energy
   **   ~~~   ** Check values should be zero. Most Recent values listed first.
   **   ~~~   ** Demand-to-Supply interface energy check value iteration history trace: 1647.178673,1647.178673,1647.178673,1647.178672,1647.178672,1647.178672,1647.178672,1647.178672,1647.178672,1647.178672,
   **   ~~~   ** Supply-to-demand interface deck 1 energy check value iteration history trace: 2788.667628,2788.667628,2788.667628,2788.667628,2788.667628,2788.667627,2788.667627,2788.667627,2788.667627,2788.667627,
   ** Warning ** SimHVAC: Maximum iterations (20) exceeded for all HVAC loops, at ANNUAL, 05/29 06:43 - 06:45
   **   ~~~   ** The solution for one or more of the Air Loop HVAC systems did not appear to converge
   **   ~~~   ** Air System Named = CENTRAL SYSTEM did not converge for mass flow rate
   **   ~~~   ** Check values should be zero. Most Recent values listed first.
   **   ~~~   ** Demand-to-Supply interface mass flow rate check value iteration history trace: 6.003352E-002,6.003352E-002,6.003352E-002,6.003352E-002,6.003352E-002,6.003352E-002,6.003352E-002,6.003352E-002,6.003352E-002,6.003352E-002,
   **   ~~~   ** Supply-to-demand interface deck 1 mass flow rate check value iteration history trace: 6.003352E-002,6.003352E-002,6.003352E-002,6.003352E-002,6.003352E-002,6.003352E-002,6.003352E-002,6.003352E-002,6.003352E-002,6.003352E-002,
   **   ~~~   ** Air System Named = CENTRAL SYSTEM did not converge for energy
   **   ~~~   ** Check values should be zero. Most Recent values listed first.
   **   ~~~   ** Demand-to-Supply interface energy check value iteration history trace: 1188.020790,1188.020790,1188.020790,1188.020790,1188.020790,1188.020790,1188.020790,1188.020790,1188.020790,1188.020790,
   **   ~~~   ** Supply-to-demand interface deck 1 energy check value iteration history trace: 2092.178346,2092.178346,2092.178346,2092.178346,2092.178346,2092.178346,2092.178346,2092.178346,2092.178346,2092.178345,
   ** Warning ** SimHVAC: Maximum iterations (20) exceeded for all HVAC loops, at ANNUAL, 05/29 06:49 - 06:51
   **   ~~~   ** The solution for one or more of the Air Loop HVAC systems did not appear to converge
   **   ~~~   ** Air System Named = CENTRAL SYSTEM did not converge for mass flow rate
   **   ~~~   ** Check values should be zero. Most Recent values listed first.
   **   ~~~   ** Demand-to-Supply interface mass flow rate check value iteration history trace: 5.944618E-002,5.944618E-002,5.944618E-002,5.944618E-002,5.944618E-002,5.944618E-002,5.944618E-002,5.944618E-002,5.944618E-002,5.944618E-002,
   **   ~~~   ** Supply-to-demand interface deck 1 mass flow rate check value iteration history trace: 5.944618E-002,5.944618E-002,5.944618E-002,5.944618E-002,5.944618E-002,5.944618E-002,5.944618E-002,5.944618E-002,5.944618E-002,5.944618E-002,
   **   ~~~   ** Air System Named = CENTRAL SYSTEM did not converge for energy
   **   ~~~   ** Check values should be zero. Most Recent values listed first.
   **   ~~~   ** Demand-to-Supply interface energy check value iteration history trace: 1174.402418,1174.402418,1174.402418,1174.402418,1174.402418,1174.402418,1174.402418,1174.402418,1174.402418,1174.402418,
   **   ~~~   ** Supply-to-demand interface deck 1 energy check value iteration history trace: 2084.568233,2084.568233,2084.568233,2084.568233,2084.568233,2084.568233,2084.568233,2084.568233,2084.568233,2084.568232,
   ** Warning ** SimHVAC: Maximum iterations (20) exceeded for all HVAC loops, at ANNUAL, 06/19 07:00 - 07:15
   **   ~~~   ** The solution for one or more of the Air Loop HVAC systems did not appear to converge
   **   ~~~   ** Air System Named = CENTRAL SYSTEM did not converge for energy
   **   ~~~   ** Check values should be zero. Most Recent values listed first.
   **   ~~~   ** Demand-to-Supply interface energy check value iteration history trace: 119.584799,119.584799,119.584799,119.584799,119.584799,119.584799,119.584799,119.584799,119.584799,119.584800,
   **   ~~~   ** Supply-to-demand interface deck 1 energy check value iteration history trace: 65.912295,65.912295,65.912295,65.912295,65.912295,65.912295,65.912295,65.912295,65.912295,65.912295,
   ** Warning ** SimHVAC: Maximum iterations (20) exceeded for all HVAC loops, at ANNUAL, 10/10 07:15 - 07:22
   **   ~~~   ** The solution for one or more of the Air Loop HVAC systems did not appear to converge
   **   ~~~   ** Air System Named = CENTRAL SYSTEM did not converge for mass flow rate
   **   ~~~   ** Check values should be zero. Most Recent values listed first.
   **   ~~~   ** Demand-to-Supply interface mass flow rate check value iteration history trace: 7.185410E-002,7.185410E-002,7.185410E-002,7.185410E-002,7.185410E-002,7.185410E-002,7.185410E-002,7.185410E-002,7.185410E-002,7.185410E-002,
   **   ~~~   ** Supply-to-demand interface deck 1 mass flow rate check value iteration history trace: 7.185410E-002,7.185410E-002,7.185410E-002,7.185410E-002,7.185410E-002,7.185410E-002,7.185410E-002,7.185410E-002,7.185410E-002,7.185410E-002,
   **   ~~~   ** Air System Named = CENTRAL SYSTEM did not converge for energy
   **   ~~~   ** Check values should be zero. Most Recent values listed first.
   **   ~~~   ** Demand-to-Supply interface energy check value iteration history trace: 1399.777774,1399.777774,1399.777774,1399.777774,1399.777774,1399.777774,1399.777774,1399.777774,1399.777774,1399.777774,
   **   ~~~   ** Supply-to-demand interface deck 1 energy check value iteration history trace: 2433.544134,2433.544133,2433.544133,2433.544133,2433.544133,2433.544133,2433.544133,2433.544133,2433.544133,2433.544132,
   ** Warning ** SimHVAC: Maximum iterations (20) exceeded for all HVAC loops, at ANNUAL, 11/10 07:45 - 08:00
   **   ~~~   ** The solution for one or more of the Air Loop HVAC systems did not appear to converge
   **   ~~~   ** Air System Named = CENTRAL SYSTEM did not converge for mass flow rate
   **   ~~~   ** Check values should be zero. Most Recent values listed first.
   **   ~~~   ** Demand-to-Supply interface mass flow rate check value iteration history trace: 7.014484E-002,7.014484E-002,7.014484E-002,7.014484E-002,7.014484E-002,7.014484E-002,7.014484E-002,7.014484E-002,7.014484E-002,7.014484E-002,
   **   ~~~   ** Supply-to-demand interface deck 1 mass flow rate check value iteration history trace: 7.014484E-002,7.014484E-002,7.014484E-002,7.014484E-002,7.014484E-002,7.014484E-002,7.014484E-002,7.014484E-002,7.014484E-002,7.014484E-002,
   **   ~~~   ** Air System Named = CENTRAL SYSTEM did not converge for energy
   **   ~~~   ** Check values should be zero. Most Recent values listed first.
   **   ~~~   ** Demand-to-Supply interface energy check value iteration history trace: 1387.321647,1387.321647,1387.321647,1387.321647,1387.321647,1387.321647,1387.321647,1387.321647,1387.321647,1387.321647,
   **   ~~~   ** Supply-to-demand interface deck 1 energy check value iteration history trace: 2418.744058,2418.744058,2418.744058,2418.744058,2418.744058,2418.744057,2418.744057,2418.744057,2418.744057,2418.744057,
   ** Warning ** SimHVAC: Maximum iterations (20) exceeded for all HVAC loops, at ANNUAL, 11/16 07:45 - 08:00
   **   ~~~   ** The solution for one or more of the Air Loop HVAC systems did not appear to converge
   **   ~~~   ** Air System Named = CENTRAL SYSTEM did not converge for mass flow rate
   **   ~~~   ** Check values should be zero. Most Recent values listed first.
   **   ~~~   ** Demand-to-Supply interface mass flow rate check value iteration history trace: 6.955603E-002,6.955603E-002,6.955603E-002,6.955603E-002,6.955603E-002,6.955603E-002,6.955603E-002,6.955603E-002,6.955603E-002,6.955603E-002,
   **   ~~~   ** Supply-to-demand interface deck 1 mass flow rate check value iteration history trace: 6.955603E-002,6.955603E-002,6.955603E-002,6.955603E-002,6.955603E-002,6.955603E-002,6.955603E-002,6.955603E-002,6.955603E-002,6.955603E-002,
   **   ~~~   ** Air System Named = CENTRAL SYSTEM did not converge for energy
   **   ~~~   ** Check values should be zero. Most Recent values listed first.
   **   ~~~   ** Demand-to-Supply interface energy check value iteration history trace: 1366.862656,1366.862656,1366.862656,1366.862656,1366.862656,1366.862656,1366.862656,1366.862656,1366.862656,1366.862656,
   **   ~~~   ** Supply-to-demand interface deck 1 energy check value iteration history trace: 2378.263305,2378.263304,2378.263304,2378.263304,2378.263304,2378.263304,2378.263304,2378.263304,2378.263304,2378.263304,
   ************* Simulation Error Summary *************
   ** Warning ** The following Report Variables were requested but not generated -- check.rdd file
   **   ~~~   ** Either the IDF did not contain these elements, the variable name is misspelled,
   **   ~~~   ** or the requested variable is an advanced output which requires Output : Diagnostics, DisplayAdvancedReportVariables;
   ************* Key=*, VarName=BASEBOARD TOTAL HEATING ENERGY, Frequency=
   ************* Key=*, VarName=WATER HEATER NATURALGAS ENERGY, Frequency=
   ************* Key=*, VarName=COOLING COIL TOTAL HEATING ENERGY, Frequency=
   ************* There are 34 unused schedules in input.
   ************* There are 388 unused week schedules in input.
   ************* There are 396 unused day schedules in input.
   ************* Use Output:Diagnostics,DisplayUnusedSchedules; to see them.
   *************
   ************* ===== Recurring Error Summary =====
   ************* The following recurring error messages occurred.
   *************
   *************  ** Warning ** "TOTAL HOT WATER LOAD" - Target water temperature should be less than or equal to the hot water temperature error continues...
   *************  **   ~~~   **   This error occurred 102899 total times;
   *************  **   ~~~   **   during Warmup 0 times;
   *************  **   ~~~   **   during Sizing 0 times.
   *************  **   ~~~   **   Max=12.79536  Min=4.892654E-004
   *************
   *************  ** Warning ** Temperature out of range [-100. to 200.] (PsyPsatFnTemp)
   *************  **   ~~~   **   This error occurred 1 total times;
   *************  **   ~~~   **   during Warmup 0 times;
   *************  **   ~~~   **   during Sizing 0 times.
   *************  **   ~~~   **   Max=-323.735031 C  Min=-323.735031 C
   *************
   *************  ** Warning ** SimHVAC: Exceeding Maximum iterations for all HVAC loops, during ANNUAL continues
   *************  **   ~~~   **   This error occurred 5 total times;
   *************  **   ~~~   **   during Warmup 0 times;
   *************  **   ~~~   **   during Sizing 0 times.
   *************
   *************
   ************* ===== Final Error Summary =====
   ************* The following error categories occurred.  Consider correcting or noting.
   ************* Nominally Unused Constructions
   ************* ..The nominally unused constructions warning is provided to alert you to potential conditions that can cause
   ************* ..extra time during simulation. Each construction is calculated by the algorithm indicated in the HeatBalanceAlgorithm
   ************* ..object. You may remove the constructions indicated (when you use the DisplayExtraWarnings option).
   *************
   ************* EnergyPlus Warmup Error Summary. During Warmup: 1 Warning; 0 Severe Errors.
   ************* EnergyPlus Sizing Error Summary. During Sizing: 4 Warning; 0 Severe Errors.
   ************* EnergyPlus Completed Successfully-- 102936 Warning; 0 Severe Errors; Elapsed Time=00hr 01min 17.12sec
