Program Version,EnergyPlus, Version 22.2.0-c249759bad, YMD=2023.09.01 19:47,
   ************* Beginning Zone Sizing Calculations
   ** Warning ** ProcessScheduleInput: Schedule:Constant="ALWAYS ON DISCRETE", Schedule Type Limits Name="ONOFF" not found -- will not be validated
   ** Warning ** Foundation:Kiva="KIVA FOUNDATION", no Interior Horizontal Insulation Material Name defined
   **   ~~~   ** Interior Horizontal Insulation Depth will not be used.
   ** Warning ** CheckUsedConstructions: There are 15 nominally unused constructions in input.
   **   ~~~   ** Each Unused construction is shown.
   ************* Construction=INTERIOR FLOOR
   ************* Construction=INTERIOR WINDOW
   ************* Construction=EXTERIOR DOOR
   ************* Construction=INTERIOR DOOR
   ************* Construction=GABLE CONSTRUCTION
   ************* Construction=CRAWL_FLOOR
   ************* Construction=INSULATED PIPE
   ************* Construction=PLAIN PIPE
   ************* Construction=TDD PIPE
   ************* Construction=TDD DOME
   ************* Construction=TDD DIFFUSER
   ************* Construction=CRAWL WALL
   ************* Construction=CEILING-FLOOR-LAYER
   ************* Construction=SLAB CONSTRUCTION W FULL R10 INSULATION
   ************* Construction=SLAB CONSTRUCTION W FULL R5 INSULATION
   ** Warning ** GetDXCoils: Coil:Heating:DX:SingleSpeed="DX_HEATING_COIL" curve values
   **   ~~~   ** ... Defrost Energy Input Ratio Function of Temperature Curve Name = DEFROSTEIR output is not equal to 1.0 (+ or - 10%) at rated conditions.
   **   ~~~   ** ... Curve output at rated conditions = 0.152
   ************* Beginning System Sizing Calculations
   ************* Beginning Plant Sizing Calculations
   ** Warning ** SizeDXCoil Coil:Cooling:DX:SingleSpeed DX_COOLING_COIL
   **   ~~~   ** ...Gross Rated Total Cooling Capacity [W] will be limited by the maximum rated volume flow per rated total capacity ratio.
   **   ~~~   ** ...DX coil volume flow rate ( m3/s ) = 0.295608
   **   ~~~   ** ...Requested capacity ( W ) = 4377.420
   **   ~~~   ** ...Requested flow/capacity ratio ( m3/s/W ) = 6.753E-005
   **   ~~~   ** ...Maximum flow/capacity ratio ( m3/s/W ) = 6.041E-005
   **   ~~~   ** ...Adjusted capacity ( W ) = 4893.367
   ** Warning ** Coil:WaterHeating:AirToWaterHeatPump:Wrapped "HEAT PUMP WATER HEATER EVAPORATOR": Rated air volume flow rate per watt of rated total water heating capacity is out of range
   **   ~~~   ** Min Rated Vol Flow Per Watt=[4.027E-005], Rated Vol Flow Per Watt=[1.510E-004], Max Rated Vol Flow Per Watt=[8.056E-005]. See Input-Output Reference Manual for valid range.
   ************* SizeFan: : Potential issue with equipment sizing for Fan:OnOff HEAT PUMP WATER HEATER FAN
   **   ~~~   ** User-Specified Maximum Flow Rate [m3/s] = 0.22653
   **   ~~~   ** differs from Design Size Maximum Flow Rate [m3/s] = 7.55250E-002
   **   ~~~   ** This may, or may not, indicate mismatched component sizes.
   **   ~~~   ** Verify that the value entered is intended and is consistent with other components.
   ** Warning ** Water heater = WATER HEATER TANK:  Recovery Efficiency and Energy Factor could not be calculated during the test for standard ratings
   **   ~~~   ** Setpoint was never recovered and/or heater never turned on
   ** Warning ** Check input. Pump nominal power or motor efficiency is set to 0, for pump=MAINS PRESSURE
   ** Warning ** AirflowNetwork::Solver::validate_distribution: Heat pump water heater is simulated along with an AirflowNetwork but is not included in the AirflowNetwork.
   ** Warning ** Output:Meter: invalid Key Name="ELECTRIC_RANGE:INTERIOREQUIPMENT:ELECTRICITY" - not found.
   ** Warning ** Output:Meter: invalid Key Name="ELECTRIC_DRYER:INTERIOREQUIPMENT:ELECTRICITY" - not found.
   ** Warning ** Output:Meter: invalid Key Name="HEATRECOVERY:ELECTRICITY" - not found.
   ** Warning ** Output:Meter: invalid Key Name="HEATING:NATURALGAS" - not found.
   ** Warning ** Output:Meter: invalid Key Name="WATERSYSTEMS:NATURALGAS" - not found.
   ** Warning ** Output:Meter: invalid Key Name="PROPANE:FACILITY" - not found.
   ** Warning ** Output:Meter: invalid Key Name="HEATING:PROPANE" - not found.
   ************* Testing Individual Branch Integrity
   ************* All Branches passed integrity testing
   ************* Testing Individual Supply Air Path Integrity
   ************* All Supply Air Paths passed integrity testing
   ************* Testing Individual Return Air Path Integrity
   ************* All Return Air Paths passed integrity testing
   ************* No node connection errors were found.
   ************* Beginning Simulation
   ** Warning ** CalcEquipmentFlowRates: "TOTAL HOT WATER LOAD" - Target water temperature is greater than the hot water temperature by (3.95 C)
   **   ~~~   **  Environment=EXTREME_WINTER, at Simulation time=12/22 06:00 - 06:15
   **   ~~~   ** ...target water temperature     = 53.33 C
   **   ~~~   ** ...hot water temperature        = 49.39 C
   **   ~~~   ** ...Target water temperature should be less than or equal to the hot water temperature. Verify temperature setpoints and schedules.
   ** Warning ** SimHVAC: Maximum iterations (20) exceeded for all HVAC loops, at ANNUAL, 02/21 15:00 - 15:15
   **   ~~~   ** The solution for one or more of the Air Loop HVAC systems did not appear to converge
   **   ~~~   ** Air System Named = CENTRAL SYSTEM did not converge for mass flow rate
   **   ~~~   ** Check values should be zero. Most Recent values listed first.
   **   ~~~   ** Demand-to-Supply interface mass flow rate check value iteration history trace: 6.730543E-002,6.730543E-002,6.730543E-002,6.730543E-002,6.730543E-002,6.730543E-002,6.730543E-002,6.730543E-002,6.730543E-002,6.730543E-002,
   **   ~~~   ** Supply-to-demand interface deck 1 mass flow rate check value iteration history trace: 6.730543E-002,6.730543E-002,6.730543E-002,6.730543E-002,6.730543E-002,6.730543E-002,6.730543E-002,6.730543E-002,6.730543E-002,6.730543E-002,
   **   ~~~   ** Air System Named = CENTRAL SYSTEM did not converge for energy
   **   ~~~   ** Check values should be zero. Most Recent values listed first.
   **   ~~~   ** Demand-to-Supply interface energy check value iteration history trace: 1333.663403,1333.663403,1333.663403,1333.663403,1333.663403,1333.663403,1333.663403,1333.663403,1333.663403,1333.663403,
   **   ~~~   ** Supply-to-demand interface deck 1 energy check value iteration history trace: 2010.733647,2010.733647,2010.733647,2010.733647,2010.733647,2010.733646,2010.733646,2010.733646,2010.733646,2010.733646,
   ** Warning ** SimHVAC: Maximum iterations (20) exceeded for all HVAC loops, at ANNUAL, 02/24 10:45 - 11:00
   **   ~~~   ** The solution for one or more of the Air Loop HVAC systems did not appear to converge
   **   ~~~   ** Air System Named = CENTRAL SYSTEM did not converge for mass flow rate
   **   ~~~   ** Check values should be zero. Most Recent values listed first.
   **   ~~~   ** Demand-to-Supply interface mass flow rate check value iteration history trace: 6.885948E-002,6.885948E-002,6.885948E-002,6.885948E-002,6.885948E-002,6.885948E-002,6.885948E-002,6.885948E-002,6.885948E-002,6.885948E-002,
   **   ~~~   ** Supply-to-demand interface deck 1 mass flow rate check value iteration history trace: 6.885948E-002,6.885948E-002,6.885948E-002,6.885948E-002,6.885948E-002,6.885948E-002,6.885948E-002,6.885948E-002,6.885948E-002,6.885948E-002,
   **   ~~~   ** Air System Named = CENTRAL SYSTEM did not converge for energy
   **   ~~~   ** Check values should be zero. Most Recent values listed first.
   **   ~~~   ** Demand-to-Supply interface energy check value iteration history trace: 1364.416543,1364.416543,1364.416543,1364.416543,1364.416542,1364.416542,1364.416542,1364.416542,1364.416542,1364.416542,
   **   ~~~   ** Supply-to-demand interface deck 1 energy check value iteration history trace: 2305.800314,2305.800314,2305.800314,2305.800314,2305.800314,2305.800314,2305.800314,2305.800313,2305.800313,2305.800313,
   ** Warning ** SimHVAC: Maximum iterations (20) exceeded for all HVAC loops, at ANNUAL, 03/10 12:00 - 12:15
   **   ~~~   ** The solution for one or more of the Air Loop HVAC systems did not appear to converge
   **   ~~~   ** Air System Named = CENTRAL SYSTEM did not converge for mass flow rate
   **   ~~~   ** Check values should be zero. Most Recent values listed first.
   **   ~~~   ** Demand-to-Supply interface mass flow rate check value iteration history trace: 7.442165E-002,7.442165E-002,7.442165E-002,7.442165E-002,7.442165E-002,7.442165E-002,7.442165E-002,7.442165E-002,7.442165E-002,7.442165E-002,
   **   ~~~   ** Supply-to-demand interface deck 1 mass flow rate check value iteration history trace: 7.442165E-002,7.442165E-002,7.442165E-002,7.442165E-002,7.442165E-002,7.442165E-002,7.442165E-002,7.442165E-002,7.442165E-002,7.442165E-002,
   **   ~~~   ** Air System Named = CENTRAL SYSTEM did not converge for energy
   **   ~~~   ** Check values should be zero. Most Recent values listed first.
   **   ~~~   ** Demand-to-Supply interface energy check value iteration history trace: 1474.838649,1474.838649,1474.838649,1474.838649,1474.838649,1474.838649,1474.838649,1474.838649,1474.838649,1474.838649,
   **   ~~~   ** Supply-to-demand interface deck 1 energy check value iteration history trace: 2239.717162,2239.717162,2239.717162,2239.717162,2239.717162,2239.717161,2239.717161,2239.717161,2239.717161,2239.717161,
   ** Warning ** Temperature out of range [-100. to 200.] (PsyPsatFnTemp)
   **   ~~~   **  Routine=PsyTwbFnTdbWPb, Environment=ANNUAL, at Simulation time=03/26 18:00 - 18:04
   **   ~~~   **  Input Temperature=-1469.43
   ** Warning ** SimHVAC: Maximum iterations (20) exceeded for all HVAC loops, at ANNUAL, 04/10 08:30 - 08:32
   **   ~~~   ** The solution for one or more of the Air Loop HVAC systems did not appear to converge
   **   ~~~   ** Air System Named = CENTRAL SYSTEM did not converge for mass flow rate
   **   ~~~   ** Check values should be zero. Most Recent values listed first.
   **   ~~~   ** Demand-to-Supply interface mass flow rate check value iteration history trace: 8.918471E-002,8.918471E-002,8.918471E-002,8.918471E-002,8.918471E-002,8.918471E-002,8.918471E-002,8.918471E-002,8.918471E-002,8.918471E-002,
   **   ~~~   ** Supply-to-demand interface deck 1 mass flow rate check value iteration history trace: 8.918471E-002,8.918471E-002,8.918471E-002,8.918471E-002,8.918471E-002,8.918471E-002,8.918471E-002,8.918471E-002,8.918471E-002,8.918471E-002,
   **   ~~~   ** Air System Named = CENTRAL SYSTEM did not converge for energy
   **   ~~~   ** Check values should be zero. Most Recent values listed first.
   **   ~~~   ** Demand-to-Supply interface energy check value iteration history trace: 1767.352896,1767.352896,1767.352896,1767.352896,1767.352896,1767.352896,1767.352896,1767.352896,1767.352896,1767.352896,
   **   ~~~   ** Supply-to-demand interface deck 1 energy check value iteration history trace: 2946.509664,2946.509664,2946.509664,2946.509663,2946.509663,2946.509663,2946.509663,2946.509663,2946.509663,2946.509663,
   ** Warning ** SimHVAC: Maximum iterations (20) exceeded for all HVAC loops, at ANNUAL, 04/16 10:45 - 11:00
   **   ~~~   ** The solution for one or more of the Air Loop HVAC systems did not appear to converge
   **   ~~~   ** Air System Named = CENTRAL SYSTEM did not converge for mass flow rate
   **   ~~~   ** Check values should be zero. Most Recent values listed first.
   **   ~~~   ** Demand-to-Supply interface mass flow rate check value iteration history trace: 0.102137,0.102137,0.102137,0.102137,0.102137,0.102137,0.102137,0.102137,0.102137,0.102137,
   **   ~~~   ** Supply-to-demand interface deck 1 mass flow rate check value iteration history trace: 0.102137,0.102137,0.102137,0.102137,0.102137,0.102137,0.102137,0.102137,0.102137,0.102137,
   **   ~~~   ** Air System Named = CENTRAL SYSTEM did not converge for energy
   **   ~~~   ** Check values should be zero. Most Recent values listed first.
   **   ~~~   ** Demand-to-Supply interface energy check value iteration history trace: 2023.392661,2023.392661,2023.392661,2023.392661,2023.392661,2023.392660,2023.392660,2023.392660,2023.392660,2023.392660,
   **   ~~~   ** Supply-to-demand interface deck 1 energy check value iteration history trace: 3173.930852,3173.930852,3173.930852,3173.930852,3173.930852,3173.930851,3173.930851,3173.930851,3173.930851,3173.930851,
   ** Warning ** SimHVAC: Maximum iterations (20) exceeded for all HVAC loops, at ANNUAL, 04/19 10:23 - 10:26
   **   ~~~   ** The solution for one or more of the Air Loop HVAC systems did not appear to converge
   **   ~~~   ** Air System Named = CENTRAL SYSTEM did not converge for mass flow rate
   **   ~~~   ** Check values should be zero. Most Recent values listed first.
   **   ~~~   ** Demand-to-Supply interface mass flow rate check value iteration history trace: 5.957188E-002,5.957188E-002,5.957188E-002,5.957188E-002,5.957188E-002,5.957188E-002,5.957188E-002,5.957188E-002,5.957188E-002,5.957188E-002,
   **   ~~~   ** Supply-to-demand interface deck 1 mass flow rate check value iteration history trace: 5.957188E-002,5.957188E-002,5.957188E-002,5.957188E-002,5.957188E-002,5.957188E-002,5.957188E-002,5.957188E-002,5.957188E-002,5.957188E-002,
   **   ~~~   ** Air System Named = CENTRAL SYSTEM did not converge for energy
   **   ~~~   ** Check values should be zero. Most Recent values listed first.
   **   ~~~   ** Demand-to-Supply interface energy check value iteration history trace: 1172.985081,1172.985081,1172.985081,1172.985080,1172.985080,1172.985080,1172.985080,1172.985080,1172.985080,1172.985080,
   **   ~~~   ** Supply-to-demand interface deck 1 energy check value iteration history trace: 2046.285882,2046.285882,2046.285882,2046.285882,2046.285882,2046.285881,2046.285881,2046.285881,2046.285881,2046.285881,
   ** Warning ** SimHVAC: Maximum iterations (20) exceeded for all HVAC loops, at ANNUAL, 04/22 08:15 - 08:22
   **   ~~~   ** The solution for one or more of the Air Loop HVAC systems did not appear to converge
   **   ~~~   ** Air System Named = CENTRAL SYSTEM did not converge for mass flow rate
   **   ~~~   ** Check values should be zero. Most Recent values listed first.
   **   ~~~   ** Demand-to-Supply interface mass flow rate check value iteration history trace: 9.732868E-002,9.732868E-002,9.732868E-002,9.732868E-002,9.732868E-002,9.732868E-002,9.732868E-002,9.732868E-002,9.732868E-002,9.732868E-002,
   **   ~~~   ** Supply-to-demand interface deck 1 mass flow rate check value iteration history trace: 9.732868E-002,9.732868E-002,9.732868E-002,9.732868E-002,9.732868E-002,9.732868E-002,9.732868E-002,9.732868E-002,9.732868E-002,9.732868E-002,
   **   ~~~   ** Air System Named = CENTRAL SYSTEM did not converge for energy
   **   ~~~   ** Check values should be zero. Most Recent values listed first.
   **   ~~~   ** Demand-to-Supply interface energy check value iteration history trace: 1927.815638,1927.815638,1927.815637,1927.815637,1927.815637,1927.815637,1927.815637,1927.815637,1927.815637,1927.815637,
   **   ~~~   ** Supply-to-demand interface deck 1 energy check value iteration history trace: 2944.644273,2944.644273,2944.644273,2944.644273,2944.644273,2944.644272,2944.644272,2944.644272,2944.644272,2944.644272,
   ** Warning ** SimHVAC: Maximum iterations (20) exceeded for all HVAC loops, at ANNUAL, 04/22 08:45 - 08:52
   **   ~~~   ** The solution for one or more of the Air Loop HVAC systems did not appear to converge
   **   ~~~   ** Air System Named = CENTRAL SYSTEM did not converge for mass flow rate
   **   ~~~   ** Check values should be zero. Most Recent values listed first.
   **   ~~~   ** Demand-to-Supply interface mass flow rate check value iteration history trace: 8.244214E-002,8.244214E-002,8.244214E-002,8.244214E-002,8.244214E-002,8.244214E-002,8.244214E-002,8.244214E-002,8.244214E-002,8.244214E-002,
   **   ~~~   ** Supply-to-demand interface deck 1 mass flow rate check value iteration history trace: 8.244214E-002,8.244214E-002,8.244214E-002,8.244214E-002,8.244214E-002,8.244214E-002,8.244214E-002,8.244214E-002,8.244214E-002,8.244214E-002,
   **   ~~~   ** Air System Named = CENTRAL SYSTEM did not converge for energy
   **   ~~~   ** Check values should be zero. Most Recent values listed first.
   **   ~~~   ** Demand-to-Supply interface energy check value iteration history trace: 1627.550016,1627.550016,1627.550016,1627.550015,1627.550015,1627.550015,1627.550015,1627.550015,1627.550015,1627.550015,
   **   ~~~   ** Supply-to-demand interface deck 1 energy check value iteration history trace: 2735.473554,2735.473554,2735.473554,2735.473553,2735.473553,2735.473553,2735.473553,2735.473553,2735.473553,2735.473553,
   ** Warning ** SimHVAC: Maximum iterations (20) exceeded for all HVAC loops, at ANNUAL, 04/27 08:15 - 08:17
   **   ~~~   ** The solution for one or more of the Air Loop HVAC systems did not appear to converge
   **   ~~~   ** Air System Named = CENTRAL SYSTEM did not converge for mass flow rate
   **   ~~~   ** Check values should be zero. Most Recent values listed first.
   **   ~~~   ** Demand-to-Supply interface mass flow rate check value iteration history trace: 9.900438E-002,9.900438E-002,9.900438E-002,9.900438E-002,9.900438E-002,9.900438E-002,9.900438E-002,9.900438E-002,9.900438E-002,9.900438E-002,
   **   ~~~   ** Supply-to-demand interface deck 1 mass flow rate check value iteration history trace: 9.900438E-002,9.900438E-002,9.900438E-002,9.900438E-002,9.900438E-002,9.900438E-002,9.900438E-002,9.900438E-002,9.900438E-002,9.900438E-002,
   **   ~~~   ** Air System Named = CENTRAL SYSTEM did not converge for energy
   **   ~~~   ** Check values should be zero. Most Recent values listed first.
   **   ~~~   ** Demand-to-Supply interface energy check value iteration history trace: 1957.895069,1957.895069,1957.895069,1957.895069,1957.895069,1957.895069,1957.895068,1957.895068,1957.895068,1957.895068,
   **   ~~~   ** Supply-to-demand interface deck 1 energy check value iteration history trace: 3034.311194,3034.311194,3034.311194,3034.311194,3034.311194,3034.311193,3034.311193,3034.311193,3034.311193,3034.311193,
   ** Warning ** SimHVAC: Maximum iterations (20) exceeded for all HVAC loops, at ANNUAL, 04/28 22:50 - 22:55
   **   ~~~   ** The solution for one or more of the Air Loop HVAC systems did not appear to converge
   **   ~~~   ** Air System Named = CENTRAL SYSTEM did not converge for mass flow rate
   **   ~~~   ** Check values should be zero. Most Recent values listed first.
   **   ~~~   ** Demand-to-Supply interface mass flow rate check value iteration history trace: 9.267082E-002,9.267082E-002,9.267082E-002,9.267082E-002,9.267082E-002,9.267082E-002,9.267082E-002,9.267082E-002,9.267082E-002,9.267082E-002,
   **   ~~~   ** Supply-to-demand interface deck 1 mass flow rate check value iteration history trace: 9.267082E-002,9.267082E-002,9.267082E-002,9.267082E-002,9.267082E-002,9.267082E-002,9.267082E-002,9.267082E-002,9.267082E-002,9.267082E-002,
   **   ~~~   ** Air System Named = CENTRAL SYSTEM did not converge for energy
   **   ~~~   ** Check values should be zero. Most Recent values listed first.
   **   ~~~   ** Demand-to-Supply interface energy check value iteration history trace: 1723.588446,1723.588446,1723.588445,1723.588445,1723.588445,1723.588445,1723.588445,1723.588445,1723.588445,1723.588445,
   **   ~~~   ** Supply-to-demand interface deck 1 energy check value iteration history trace: 2585.355140,2585.355140,2585.355140,2585.355139,2585.355139,2585.355139,2585.355139,2585.355139,2585.355139,2585.355138,
   ** Warning ** SimHVAC: Maximum iterations (20) exceeded for all HVAC loops, at ANNUAL, 05/02 09:15 - 09:22
   **   ~~~   ** The solution for one or more of the Air Loop HVAC systems did not appear to converge
   **   ~~~   ** Air System Named = CENTRAL SYSTEM did not converge for mass flow rate
   **   ~~~   ** Check values should be zero. Most Recent values listed first.
   **   ~~~   ** Demand-to-Supply interface mass flow rate check value iteration history trace: 6.639964E-002,6.639964E-002,6.639964E-002,6.639964E-002,6.639964E-002,6.639964E-002,6.639964E-002,6.639964E-002,6.639964E-002,6.639964E-002,
   **   ~~~   ** Supply-to-demand interface deck 1 mass flow rate check value iteration history trace: 6.639964E-002,6.639964E-002,6.639964E-002,6.639964E-002,6.639964E-002,6.639964E-002,6.639964E-002,6.639964E-002,6.639964E-002,6.639964E-002,
   **   ~~~   ** Air System Named = CENTRAL SYSTEM did not converge for energy
   **   ~~~   ** Check values should be zero. Most Recent values listed first.
   **   ~~~   ** Demand-to-Supply interface energy check value iteration history trace: 1315.740270,1315.740270,1315.740270,1315.740270,1315.740270,1315.740270,1315.740270,1315.740270,1315.740270,1315.740270,
   **   ~~~   ** Supply-to-demand interface deck 1 energy check value iteration history trace: 2231.355324,2231.355324,2231.355324,2231.355324,2231.355324,2231.355324,2231.355324,2231.355324,2231.355323,2231.355323,
   ** Warning ** SimHVAC: Maximum iterations (20) exceeded for all HVAC loops, at ANNUAL, 05/10 10:15 - 10:22
   **   ~~~   ** The solution for one or more of the Air Loop HVAC systems did not appear to converge
   **   ~~~   ** Air System Named = CENTRAL SYSTEM did not converge for mass flow rate
   **   ~~~   ** Check values should be zero. Most Recent values listed first.
   **   ~~~   ** Demand-to-Supply interface mass flow rate check value iteration history trace: 5.890188E-002,5.890188E-002,5.890188E-002,5.890188E-002,5.890188E-002,5.890188E-002,5.890188E-002,5.890188E-002,5.890188E-002,5.890188E-002,
   **   ~~~   ** Supply-to-demand interface deck 1 mass flow rate check value iteration history trace: 5.890188E-002,5.890188E-002,5.890188E-002,5.890188E-002,5.890188E-002,5.890188E-002,5.890188E-002,5.890188E-002,5.890188E-002,5.890188E-002,
   **   ~~~   ** Air System Named = CENTRAL SYSTEM did not converge for energy
   **   ~~~   ** Check values should be zero. Most Recent values listed first.
   **   ~~~   ** Demand-to-Supply interface energy check value iteration history trace: 1163.466629,1163.466629,1163.466629,1163.466629,1163.466629,1163.466629,1163.466629,1163.466629,1163.466629,1163.466629,
   **   ~~~   ** Supply-to-demand interface deck 1 energy check value iteration history trace: 2024.570964,2024.570964,2024.570964,2024.570964,2024.570964,2024.570964,2024.570964,2024.570964,2024.570963,2024.570963,
   ** Warning ** SimHVAC: Maximum iterations (20) exceeded for all HVAC loops, at ANNUAL, 05/11 07:00 - 07:15
   **   ~~~   ** The solution for one or more of the Air Loop HVAC systems did not appear to converge
   **   ~~~   ** Air System Named = CENTRAL SYSTEM did not converge for mass flow rate
   **   ~~~   ** Check values should be zero. Most Recent values listed first.
   **   ~~~   ** Demand-to-Supply interface mass flow rate check value iteration history trace: 6.136719E-002,6.136719E-002,6.136719E-002,6.136719E-002,6.136719E-002,6.136719E-002,6.136719E-002,6.136719E-002,6.136719E-002,6.136719E-002,
   **   ~~~   ** Supply-to-demand interface deck 1 mass flow rate check value iteration history trace: 6.136719E-002,6.136719E-002,6.136719E-002,6.136719E-002,6.136719E-002,6.136719E-002,6.136719E-002,6.136719E-002,6.136719E-002,6.136719E-002,
   **   ~~~   ** Air System Named = CENTRAL SYSTEM did not converge for energy
   **   ~~~   ** Check values should be zero. Most Recent values listed first.
   **   ~~~   ** Demand-to-Supply interface energy check value iteration history trace: 1205.362080,1205.362080,1205.362080,1205.362080,1205.362080,1205.362080,1205.362080,1205.362080,1205.362080,1205.362080,
   **   ~~~   ** Supply-to-demand interface deck 1 energy check value iteration history trace: 2110.451233,2110.451233,2110.451233,2110.451233,2110.451233,2110.451233,2110.451233,2110.451233,2110.451233,2110.451233,
   ** Warning ** SimHVAC: Maximum iterations (20) exceeded for all HVAC loops, at ANNUAL, 06/07 06:10 - 06:15
   **   ~~~   ** The solution for one or more of the Air Loop HVAC systems did not appear to converge
   **   ~~~   ** Air System Named = CENTRAL SYSTEM did not converge for mass flow rate
   **   ~~~   ** Check values should be zero. Most Recent values listed first.
   **   ~~~   ** Demand-to-Supply interface mass flow rate check value iteration history trace: 6.224152E-002,6.224152E-002,6.224152E-002,6.224152E-002,6.224152E-002,6.224152E-002,6.224152E-002,6.224152E-002,6.224152E-002,6.224152E-002,
   **   ~~~   ** Supply-to-demand interface deck 1 mass flow rate check value iteration history trace: 6.224152E-002,6.224152E-002,6.224152E-002,6.224152E-002,6.224152E-002,6.224152E-002,6.224152E-002,6.224152E-002,6.224152E-002,6.224152E-002,
   **   ~~~   ** Air System Named = CENTRAL SYSTEM did not converge for energy
   **   ~~~   ** Check values should be zero. Most Recent values listed first.
   **   ~~~   ** Demand-to-Supply interface energy check value iteration history trace: 1234.208597,1234.208597,1234.208597,1234.208597,1234.208597,1234.208597,1234.208597,1234.208597,1234.208597,1234.208597,
   **   ~~~   ** Supply-to-demand interface deck 1 energy check value iteration history trace: 2142.648807,2142.648807,2142.648806,2142.648806,2142.648806,2142.648806,2142.648806,2142.648806,2142.648806,2142.648806,
   ************* Simulation Error Summary *************
   ** Warning ** The following Report Variables were requested but not generated -- check.rdd file
   **   ~~~   ** Either the IDF did not contain these elements, the variable name is misspelled,
   **   ~~~   ** or the requested variable is an advanced output which requires Output : Diagnostics, DisplayAdvancedReportVariables;
   ************* Key=*, VarName=BASEBOARD TOTAL HEATING ENERGY, Frequency=
   ************* Key=*, VarName=WATER HEATER NATURALGAS ENERGY, Frequency=
   ************* Key=*, VarName=COOLING COIL TOTAL HEATING ENERGY, Frequency=
   ************* There are 34 unused schedules in input.
   ************* There are 388 unused week schedules in input.
   ************* There are 396 unused day schedules in input.
   ************* Use Output:Diagnostics,DisplayUnusedSchedules; to see them.
   *************
   ************* ===== Recurring Error Summary =====
   ************* The following recurring error messages occurred.
   *************
   *************  ** Warning ** "TOTAL HOT WATER LOAD" - Target water temperature should be less than or equal to the hot water temperature error continues...
   *************  **   ~~~   **   This error occurred 118481 total times;
   *************  **   ~~~   **   during Warmup 0 times;
   *************  **   ~~~   **   during Sizing 0 times.
   *************  **   ~~~   **   Max=16.450639  Min=4.227089E-004
   *************
   *************  ** Warning ** Temperature out of range [-100. to 200.] (PsyPsatFnTemp)
   *************  **   ~~~   **   This error occurred 1 total times;
   *************  **   ~~~   **   during Warmup 0 times;
   *************  **   ~~~   **   during Sizing 0 times.
   *************  **   ~~~   **   Max=-1469.435303 C  Min=-1469.435303 C
   *************
   *************  ** Warning ** SimHVAC: Exceeding Maximum iterations for all HVAC loops, during ANNUAL continues
   *************  **   ~~~   **   This error occurred 19 total times;
   *************  **   ~~~   **   during Warmup 0 times;
   *************  **   ~~~   **   during Sizing 0 times.
   *************
   *************
   ************* ===== Final Error Summary =====
   ************* The following error categories occurred.  Consider correcting or noting.
   ************* Nominally Unused Constructions
   ************* ..The nominally unused constructions warning is provided to alert you to potential conditions that can cause
   ************* ..extra time during simulation. Each construction is calculated by the algorithm indicated in the HeatBalanceAlgorithm
   ************* ..object. You may remove the constructions indicated (when you use the DisplayExtraWarnings option).
   *************
   ************* EnergyPlus Warmup Error Summary. During Warmup: 0 Warning; 0 Severe Errors.
   ************* EnergyPlus Sizing Error Summary. During Sizing: 4 Warning; 0 Severe Errors.
   ************* EnergyPlus Completed Successfully-- 118533 Warning; 0 Severe Errors; Elapsed Time=00hr 01min 28.38sec
