Program Version,EnergyPlus, Version 22.2.0-c249759bad, YMD=2023.09.01 19:00,
   ************* Beginning Zone Sizing Calculations
   ** Warning ** ProcessScheduleInput: Schedule:Constant="ALWAYS ON DISCRETE", Schedule Type Limits Name="ONOFF" not found -- will not be validated
   ** Warning ** Foundation:Kiva="KIVA FOUNDATION", no Interior Horizontal Insulation Material Name defined
   **   ~~~   ** Interior Horizontal Insulation Depth will not be used.
   ** Warning ** CheckUsedConstructions: There are 15 nominally unused constructions in input.
   **   ~~~   ** Each Unused construction is shown.
   ************* Construction=INTERIOR FLOOR
   ************* Construction=INTERIOR WINDOW
   ************* Construction=EXTERIOR DOOR
   ************* Construction=INTERIOR DOOR
   ************* Construction=GABLE CONSTRUCTION
   ************* Construction=CRAWL_FLOOR
   ************* Construction=INSULATED PIPE
   ************* Construction=PLAIN PIPE
   ************* Construction=TDD PIPE
   ************* Construction=TDD DOME
   ************* Construction=TDD DIFFUSER
   ************* Construction=CRAWL WALL
   ************* Construction=CEILING-FLOOR-LAYER
   ************* Construction=SLAB CONSTRUCTION W FULL R10 INSULATION
   ************* Construction=SLAB CONSTRUCTION W FULL R5 INSULATION
   ** Warning ** GetDXCoils: Coil:Heating:DX:SingleSpeed="DX_HEATING_COIL" curve values
   **   ~~~   ** ... Defrost Energy Input Ratio Function of Temperature Curve Name = DEFROSTEIR output is not equal to 1.0 (+ or - 10%) at rated conditions.
   **   ~~~   ** ... Curve output at rated conditions = 0.152
   ************* Beginning System Sizing Calculations
   ************* Beginning Plant Sizing Calculations
   ** Warning ** SizeDXCoil Coil:Cooling:DX:SingleSpeed DX_COOLING_COIL
   **   ~~~   ** ...Gross Rated Total Cooling Capacity [W] will be limited by the maximum rated volume flow per rated total capacity ratio.
   **   ~~~   ** ...DX coil volume flow rate ( m3/s ) = 0.377124
   **   ~~~   ** ...Requested capacity ( W ) = 6242.564
   **   ~~~   ** ...Requested flow/capacity ratio ( m3/s/W ) = 6.041E-005
   **   ~~~   ** ...Maximum flow/capacity ratio ( m3/s/W ) = 6.041E-005
   **   ~~~   ** ...Adjusted capacity ( W ) = 6242.748
   ** Warning ** Coil:WaterHeating:AirToWaterHeatPump:Wrapped "HEAT PUMP WATER HEATER EVAPORATOR": Rated air volume flow rate per watt of rated total water heating capacity is out of range
   **   ~~~   ** Min Rated Vol Flow Per Watt=[4.027E-005], Rated Vol Flow Per Watt=[1.510E-004], Max Rated Vol Flow Per Watt=[8.056E-005]. See Input-Output Reference Manual for valid range.
   ************* SizeFan: : Potential issue with equipment sizing for Fan:OnOff HEAT PUMP WATER HEATER FAN
   **   ~~~   ** User-Specified Maximum Flow Rate [m3/s] = 0.22653
   **   ~~~   ** differs from Design Size Maximum Flow Rate [m3/s] = 7.55250E-002
   **   ~~~   ** This may, or may not, indicate mismatched component sizes.
   **   ~~~   ** Verify that the value entered is intended and is consistent with other components.
   ** Warning ** Water heater = WATER HEATER TANK:  Recovery Efficiency and Energy Factor could not be calculated during the test for standard ratings
   **   ~~~   ** Setpoint was never recovered and/or heater never turned on
   ** Warning ** Check input. Pump nominal power or motor efficiency is set to 0, for pump=MAINS PRESSURE
   ** Warning ** Output:Meter: invalid Key Name="ELECTRIC_RANGE:INTERIOREQUIPMENT:ELECTRICITY" - not found.
   ** Warning ** Output:Meter: invalid Key Name="ELECTRIC_DRYER:INTERIOREQUIPMENT:ELECTRICITY" - not found.
   ** Warning ** Output:Meter: invalid Key Name="HEATRECOVERY:ELECTRICITY" - not found.
   ** Warning ** Output:Meter: invalid Key Name="HEATING:NATURALGAS" - not found.
   ** Warning ** Output:Meter: invalid Key Name="WATERSYSTEMS:NATURALGAS" - not found.
   ** Warning ** Output:Meter: invalid Key Name="PROPANE:FACILITY" - not found.
   ** Warning ** Output:Meter: invalid Key Name="HEATING:PROPANE" - not found.
   ************* Testing Individual Branch Integrity
   ************* All Branches passed integrity testing
   ************* Testing Individual Supply Air Path Integrity
   ************* All Supply Air Paths passed integrity testing
   ************* Testing Individual Return Air Path Integrity
   ************* All Return Air Paths passed integrity testing
   ************* No node connection errors were found.
   ************* Beginning Simulation
   ** Warning ** AirflowNetwork::Solver::validate_distribution: Heat pump water heater is simulated along with an AirflowNetwork but is not included in the AirflowNetwork.
   ** Warning ** CalcEquipmentFlowRates: "TOTAL HOT WATER LOAD" - Target water temperature is greater than the hot water temperature by (1.00 C)
   **   ~~~   **  Environment=EXTREME_WINTER, at Simulation time=01/27 03:45 - 04:00
   **   ~~~   ** ...target water temperature     = 53.33 C
   **   ~~~   ** ...hot water temperature        = 52.33 C
   **   ~~~   ** ...Target water temperature should be less than or equal to the hot water temperature. Verify temperature setpoints and schedules.
   ** Severe  ** CheckWarmupConvergence: Loads Initialization, Zone="ATTIC" did not converge after 25 warmup days.
   **   ~~~   ** See Warmup Convergence Information in .eio file for details.
   **   ~~~   ** ...Environment(RunPeriod)="ANNUAL"
   **   ~~~   ** ..Max Temp Comparison = 5.67E-002 vs Temperature Convergence Tolerance=5.00E-002 - Fail Convergence
   **   ~~~   ** ..Min Temp Comparison = 3.71E-003 vs Temperature Convergence Tolerance=5.00E-002 - Pass Convergence
   **   ~~~   ** ..Max Heat Load Comparison = 0.0000 vs Loads Convergence Tolerance=5.00E-002 - Pass Convergence
   **   ~~~   ** ..Max Cool Load Comparison = 0.0000 vs Loads Convergence Tolerance=5.00E-002 - Pass Convergence
   ** Warning ** SimHVAC: Maximum iterations (20) exceeded for all HVAC loops, at ANNUAL, 03/25 09:45 - 10:00
   **   ~~~   ** The solution for one or more of the Air Loop HVAC systems did not appear to converge
   **   ~~~   ** Air System Named = CENTRAL SYSTEM did not converge for mass flow rate
   **   ~~~   ** Check values should be zero. Most Recent values listed first.
   **   ~~~   ** Demand-to-Supply interface mass flow rate check value iteration history trace: 7.091241E-002,7.091241E-002,7.091241E-002,7.091241E-002,7.091241E-002,7.091241E-002,7.091241E-002,7.091241E-002,7.091241E-002,7.091241E-002,
   **   ~~~   ** Supply-to-demand interface deck 1 mass flow rate check value iteration history trace: 7.091241E-002,7.091241E-002,7.091241E-002,7.091241E-002,7.091241E-002,7.091241E-002,7.091241E-002,7.091241E-002,7.091241E-002,7.091241E-002,
   **   ~~~   ** Air System Named = CENTRAL SYSTEM did not converge for energy
   **   ~~~   ** Check values should be zero. Most Recent values listed first.
   **   ~~~   ** Demand-to-Supply interface energy check value iteration history trace: 1404.419299,1404.419299,1404.419299,1404.419299,1404.419298,1404.419298,1404.419298,1404.419298,1404.419298,1404.419298,
   **   ~~~   ** Supply-to-demand interface deck 1 energy check value iteration history trace: 2376.979002,2376.979002,2376.979002,2376.979001,2376.979001,2376.979001,2376.979001,2376.979001,2376.979001,2376.979001,
   ** Warning ** SimHVAC: Maximum iterations (20) exceeded for all HVAC loops, at ANNUAL, 03/26 13:45 - 14:00
   **   ~~~   ** The solution for one or more of the Air Loop HVAC systems did not appear to converge
   **   ~~~   ** Air System Named = CENTRAL SYSTEM did not converge for mass flow rate
   **   ~~~   ** Check values should be zero. Most Recent values listed first.
   **   ~~~   ** Demand-to-Supply interface mass flow rate check value iteration history trace: 6.559363E-002,6.559363E-002,6.559363E-002,6.559363E-002,6.559363E-002,6.559363E-002,6.559363E-002,6.559363E-002,6.559363E-002,6.559363E-002,
   **   ~~~   ** Supply-to-demand interface deck 1 mass flow rate check value iteration history trace: 6.559363E-002,6.559363E-002,6.559363E-002,6.559363E-002,6.559363E-002,6.559363E-002,6.559363E-002,6.559363E-002,6.559363E-002,6.559363E-002,
   **   ~~~   ** Air System Named = CENTRAL SYSTEM did not converge for energy
   **   ~~~   ** Check values should be zero. Most Recent values listed first.
   **   ~~~   ** Demand-to-Supply interface energy check value iteration history trace: 1296.864640,1296.864640,1296.864640,1296.864640,1296.864640,1296.864640,1296.864640,1296.864640,1296.864639,1296.864639,
   **   ~~~   ** Supply-to-demand interface deck 1 energy check value iteration history trace: 2219.026692,2219.026691,2219.026691,2219.026691,2219.026691,2219.026691,2219.026691,2219.026691,2219.026691,2219.026690,
   ** Warning ** SimHVAC: Maximum iterations (20) exceeded for all HVAC loops, at ANNUAL, 06/03 07:45 - 08:00
   **   ~~~   ** The solution for one or more of the Air Loop HVAC systems did not appear to converge
   **   ~~~   ** Air System Named = CENTRAL SYSTEM did not converge for mass flow rate
   **   ~~~   ** Check values should be zero. Most Recent values listed first.
   **   ~~~   ** Demand-to-Supply interface mass flow rate check value iteration history trace: 9.767780E-002,9.767780E-002,9.767780E-002,9.767780E-002,9.767780E-002,9.767780E-002,9.767780E-002,9.767780E-002,9.767780E-002,9.767780E-002,
   **   ~~~   ** Supply-to-demand interface deck 1 mass flow rate check value iteration history trace: 9.767780E-002,9.767780E-002,9.767780E-002,9.767780E-002,9.767780E-002,9.767780E-002,9.767780E-002,9.767780E-002,9.767780E-002,9.767780E-002,
   **   ~~~   ** Air System Named = CENTRAL SYSTEM did not converge for energy
   **   ~~~   ** Check values should be zero. Most Recent values listed first.
   **   ~~~   ** Demand-to-Supply interface energy check value iteration history trace: 2313.764689,2313.764690,2313.764690,2313.764691,2313.764691,2313.764692,2313.764692,2313.764693,2313.764694,2313.764694,
   **   ~~~   ** Supply-to-demand interface deck 1 energy check value iteration history trace: 1337.103983,1337.103983,1337.103984,1337.103984,1337.103984,1337.103985,1337.103985,1337.103985,1337.103986,1337.103986,
   ** Warning ** SimHVAC: Maximum iterations (20) exceeded for all HVAC loops, at ANNUAL, 06/03 10:35 - 10:40
   **   ~~~   ** The solution for one or more of the Air Loop HVAC systems did not appear to converge
   **   ~~~   ** Air System Named = CENTRAL SYSTEM did not converge for mass flow rate
   **   ~~~   ** Check values should be zero. Most Recent values listed first.
   **   ~~~   ** Demand-to-Supply interface mass flow rate check value iteration history trace: 0.120979,0.120979,0.120979,0.120979,0.120979,0.120979,0.120979,0.120979,0.120979,0.120979,
   **   ~~~   ** Supply-to-demand interface deck 1 mass flow rate check value iteration history trace: 0.120979,0.120979,0.120979,0.120979,0.120979,0.120979,0.120979,0.120979,0.120979,0.120979,
   **   ~~~   ** Air System Named = CENTRAL SYSTEM did not converge for energy
   **   ~~~   ** Check values should be zero. Most Recent values listed first.
   **   ~~~   ** Demand-to-Supply interface energy check value iteration history trace: 2831.614719,2831.614720,2831.614720,2831.614721,2831.614722,2831.614723,2831.614724,2831.614724,2831.614725,2831.614726,
   **   ~~~   ** Supply-to-demand interface deck 1 energy check value iteration history trace: 1602.491492,1602.491492,1602.491493,1602.491493,1602.491494,1602.491494,1602.491495,1602.491495,1602.491496,1602.491496,
   ** Warning ** SimHVAC: Maximum iterations (20) exceeded for all HVAC loops, at ANNUAL, 06/06 08:32 - 08:35
   **   ~~~   ** The solution for one or more of the Air Loop HVAC systems did not appear to converge
   **   ~~~   ** Air System Named = CENTRAL SYSTEM did not converge for mass flow rate
   **   ~~~   ** Check values should be zero. Most Recent values listed first.
   **   ~~~   ** Demand-to-Supply interface mass flow rate check value iteration history trace: 0.177755,0.177755,0.177755,0.177755,0.177755,0.177755,0.177755,0.177755,0.177755,0.177755,
   **   ~~~   ** Supply-to-demand interface deck 1 mass flow rate check value iteration history trace: 0.177755,0.177755,0.177755,0.177755,0.177755,0.177755,0.177755,0.177755,0.177755,0.177755,
   **   ~~~   ** Air System Named = CENTRAL SYSTEM did not converge for energy
   **   ~~~   ** Check values should be zero. Most Recent values listed first.
   **   ~~~   ** Demand-to-Supply interface energy check value iteration history trace: 4187.613129,4187.613130,4187.613130,4187.613130,4187.613131,4187.613131,4187.613131,4187.613132,4187.613132,4187.613132,
   **   ~~~   ** Supply-to-demand interface deck 1 energy check value iteration history trace: 2075.124038,2075.124038,2075.124038,2075.124039,2075.124039,2075.124039,2075.124039,2075.124039,2075.124039,2075.124039,
   ** Warning ** SimHVAC: Maximum iterations (20) exceeded for all HVAC loops, at ANNUAL, 06/06 09:10 - 09:12
   **   ~~~   ** The solution for one or more of the Air Loop HVAC systems did not appear to converge
   **   ~~~   ** Air System Named = CENTRAL SYSTEM did not converge for mass flow rate
   **   ~~~   ** Check values should be zero. Most Recent values listed first.
   **   ~~~   ** Demand-to-Supply interface mass flow rate check value iteration history trace: 7.906223E-002,7.906223E-002,7.906223E-002,7.906223E-002,7.906223E-002,7.906223E-002,7.906223E-002,7.906223E-002,7.906223E-002,7.906223E-002,
   **   ~~~   ** Supply-to-demand interface deck 1 mass flow rate check value iteration history trace: 7.906223E-002,7.906223E-002,7.906223E-002,7.906223E-002,7.906223E-002,7.906223E-002,7.906223E-002,7.906223E-002,7.906223E-002,7.906223E-002,
   **   ~~~   ** Air System Named = CENTRAL SYSTEM did not converge for energy
   **   ~~~   ** Check values should be zero. Most Recent values listed first.
   **   ~~~   ** Demand-to-Supply interface energy check value iteration history trace: 1861.395030,1861.395030,1861.395030,1861.395031,1861.395031,1861.395031,1861.395031,1861.395031,1861.395031,1861.395032,
   **   ~~~   ** Supply-to-demand interface deck 1 energy check value iteration history trace: 925.008131,925.008131,925.008131,925.008131,925.008131,925.008131,925.008132,925.008132,925.008132,925.008132,
   ** Warning ** SimHVAC: Maximum iterations (20) exceeded for all HVAC loops, at ANNUAL, 06/07 13:30 - 13:45
   **   ~~~   ** The solution for one or more of the Air Loop HVAC systems did not appear to converge
   **   ~~~   ** Air System Named = CENTRAL SYSTEM did not converge for mass flow rate
   **   ~~~   ** Check values should be zero. Most Recent values listed first.
   **   ~~~   ** Demand-to-Supply interface mass flow rate check value iteration history trace: 6.357603E-002,6.357603E-002,6.357603E-002,6.357603E-002,6.357603E-002,6.357603E-002,6.357603E-002,6.357603E-002,6.357603E-002,6.357603E-002,
   **   ~~~   ** Supply-to-demand interface deck 1 mass flow rate check value iteration history trace: 6.357603E-002,6.357603E-002,6.357603E-002,6.357603E-002,6.357603E-002,6.357603E-002,6.357603E-002,6.357603E-002,6.357603E-002,6.357603E-002,
   **   ~~~   ** Air System Named = CENTRAL SYSTEM did not converge for energy
   **   ~~~   ** Check values should be zero. Most Recent values listed first.
   **   ~~~   ** Demand-to-Supply interface energy check value iteration history trace: 1488.254030,1488.254030,1488.254030,1488.254030,1488.254030,1488.254031,1488.254031,1488.254031,1488.254031,1488.254031,
   **   ~~~   ** Supply-to-demand interface deck 1 energy check value iteration history trace: 799.938865,799.938865,799.938865,799.938865,799.938865,799.938865,799.938865,799.938865,799.938865,799.938866,
   ** Warning ** SimHVAC: Maximum iterations (20) exceeded for all HVAC loops, at ANNUAL, 06/12 07:30 - 07:45
   **   ~~~   ** The solution for one or more of the Air Loop HVAC systems did not appear to converge
   **   ~~~   ** Air System Named = CENTRAL SYSTEM did not converge for mass flow rate
   **   ~~~   ** Check values should be zero. Most Recent values listed first.
   **   ~~~   ** Demand-to-Supply interface mass flow rate check value iteration history trace: 1.085650E-002,1.085650E-002,1.085650E-002,1.085650E-002,1.085650E-002,1.085650E-002,1.085650E-002,1.085650E-002,1.085650E-002,1.085650E-002,
   **   ~~~   ** Supply-to-demand interface deck 1 mass flow rate check value iteration history trace: 1.085650E-002,1.085650E-002,1.085650E-002,1.085650E-002,1.085650E-002,1.085650E-002,1.085650E-002,1.085650E-002,1.085650E-002,1.085650E-002,
   **   ~~~   ** Air System Named = CENTRAL SYSTEM did not converge for energy
   **   ~~~   ** Check values should be zero. Most Recent values listed first.
   **   ~~~   ** Demand-to-Supply interface energy check value iteration history trace: 253.908746,253.908746,253.908746,253.908746,253.908746,253.908746,253.908746,253.908746,253.908746,253.908746,
   **   ~~~   ** Supply-to-demand interface deck 1 energy check value iteration history trace: 129.855755,129.855755,129.855755,129.855755,129.855755,129.855755,129.855755,129.855755,129.855755,129.855755,
   ** Warning ** SimHVAC: Maximum iterations (20) exceeded for all HVAC loops, at ANNUAL, 10/20 19:53 - 20:00
   **   ~~~   ** The solution for one or more of the Air Loop HVAC systems did not appear to converge
   **   ~~~   ** Air System Named = CENTRAL SYSTEM did not converge for mass flow rate
   **   ~~~   ** Check values should be zero. Most Recent values listed first.
   **   ~~~   ** Demand-to-Supply interface mass flow rate check value iteration history trace: 0.151811,0.151811,0.151811,0.151811,0.151811,0.151811,0.151811,0.151811,0.151811,0.151811,
   **   ~~~   ** Supply-to-demand interface deck 1 mass flow rate check value iteration history trace: 0.151811,0.151811,0.151811,0.151811,0.151811,0.151811,0.151811,0.151811,0.151811,0.151811,
   **   ~~~   ** Air System Named = CENTRAL SYSTEM did not converge for energy
   **   ~~~   ** Check values should be zero. Most Recent values listed first.
   **   ~~~   ** Demand-to-Supply interface energy check value iteration history trace: 3607.232944,3607.232944,3607.232944,3607.232944,3607.232945,3607.232945,3607.232945,3607.232945,3607.232945,3607.232946,
   **   ~~~   ** Supply-to-demand interface deck 1 energy check value iteration history trace: 1416.964498,1416.964498,1416.964499,1416.964499,1416.964499,1416.964499,1416.964499,1416.964499,1416.964499,1416.964499,
   ** Warning ** SimHVAC: Maximum iterations (20) exceeded for all HVAC loops, at ANNUAL, 10/23 07:45 - 08:00
   **   ~~~   ** The solution for one or more of the Air Loop HVAC systems did not appear to converge
   **   ~~~   ** Air System Named = CENTRAL SYSTEM did not converge for mass flow rate
   **   ~~~   ** Check values should be zero. Most Recent values listed first.
   **   ~~~   ** Demand-to-Supply interface mass flow rate check value iteration history trace: 9.495427E-002,9.495427E-002,9.495427E-002,9.495427E-002,9.495427E-002,9.495427E-002,9.495427E-002,9.495427E-002,9.495427E-002,9.495427E-002,
   **   ~~~   ** Supply-to-demand interface deck 1 mass flow rate check value iteration history trace: 9.495427E-002,9.495427E-002,9.495427E-002,9.495427E-002,9.495427E-002,9.495427E-002,9.495427E-002,9.495427E-002,9.495427E-002,9.495427E-002,
   **   ~~~   ** Air System Named = CENTRAL SYSTEM did not converge for energy
   **   ~~~   ** Check values should be zero. Most Recent values listed first.
   **   ~~~   ** Demand-to-Supply interface energy check value iteration history trace: 1881.416475,1881.416475,1881.416474,1881.416474,1881.416474,1881.416474,1881.416474,1881.416474,1881.416474,1881.416473,
   **   ~~~   ** Supply-to-demand interface deck 1 energy check value iteration history trace: 2827.113994,2827.113994,2827.113994,2827.113994,2827.113994,2827.113993,2827.113993,2827.113993,2827.113993,2827.113993,
   ** Warning ** SimHVAC: Maximum iterations (20) exceeded for all HVAC loops, at ANNUAL, 11/08 09:11 - 09:15
   **   ~~~   ** The solution for one or more of the Air Loop HVAC systems did not appear to converge
   **   ~~~   ** Air System Named = CENTRAL SYSTEM did not converge for mass flow rate
   **   ~~~   ** Check values should be zero. Most Recent values listed first.
   **   ~~~   ** Demand-to-Supply interface mass flow rate check value iteration history trace: 6.813703E-002,6.813703E-002,6.813703E-002,6.813703E-002,6.813703E-002,6.813703E-002,6.813703E-002,6.813703E-002,6.813703E-002,6.813703E-002,
   **   ~~~   ** Supply-to-demand interface deck 1 mass flow rate check value iteration history trace: 6.813703E-002,6.813703E-002,6.813703E-002,6.813703E-002,6.813703E-002,6.813703E-002,6.813703E-002,6.813703E-002,6.813703E-002,6.813703E-002,
   **   ~~~   ** Air System Named = CENTRAL SYSTEM did not converge for energy
   **   ~~~   ** Check values should be zero. Most Recent values listed first.
   **   ~~~   ** Demand-to-Supply interface energy check value iteration history trace: 1343.352683,1343.352683,1343.352683,1343.352683,1343.352683,1343.352683,1343.352683,1343.352683,1343.352683,1343.352683,
   **   ~~~   ** Supply-to-demand interface deck 1 energy check value iteration history trace: 2334.688388,2334.688387,2334.688387,2334.688387,2334.688387,2334.688387,2334.688387,2334.688387,2334.688387,2334.688387,
   ** Warning ** SimHVAC: Maximum iterations (20) exceeded for all HVAC loops, at ANNUAL, 11/25 11:34 - 11:38
   **   ~~~   ** The solution for one or more of the Air Loop HVAC systems did not appear to converge
   **   ~~~   ** Air System Named = CENTRAL SYSTEM did not converge for mass flow rate
   **   ~~~   ** Check values should be zero. Most Recent values listed first.
   **   ~~~   ** Demand-to-Supply interface mass flow rate check value iteration history trace: 6.341682E-002,6.341682E-002,6.341682E-002,6.341682E-002,6.341682E-002,6.341682E-002,6.341682E-002,6.341682E-002,6.341682E-002,6.341682E-002,
   **   ~~~   ** Supply-to-demand interface deck 1 mass flow rate check value iteration history trace: 6.341682E-002,6.341682E-002,6.341682E-002,6.341682E-002,6.341682E-002,6.341682E-002,6.341682E-002,6.341682E-002,6.341682E-002,6.341682E-002,
   **   ~~~   ** Air System Named = CENTRAL SYSTEM did not converge for energy
   **   ~~~   ** Check values should be zero. Most Recent values listed first.
   **   ~~~   ** Demand-to-Supply interface energy check value iteration history trace: 1249.633874,1249.633874,1249.633874,1249.633874,1249.633874,1249.633874,1249.633873,1249.633873,1249.633873,1249.633873,
   **   ~~~   ** Supply-to-demand interface deck 1 energy check value iteration history trace: 2115.600122,2115.600122,2115.600122,2115.600122,2115.600122,2115.600122,2115.600122,2115.600121,2115.600121,2115.600121,
   ** Warning ** SimHVAC: Maximum iterations (20) exceeded for all HVAC loops, at ANNUAL, 11/26 13:30 - 13:45
   **   ~~~   ** The solution for one or more of the Air Loop HVAC systems did not appear to converge
   **   ~~~   ** Air System Named = CENTRAL SYSTEM did not converge for mass flow rate
   **   ~~~   ** Check values should be zero. Most Recent values listed first.
   **   ~~~   ** Demand-to-Supply interface mass flow rate check value iteration history trace: 6.041245E-002,6.041245E-002,6.041245E-002,6.041245E-002,6.041245E-002,6.041245E-002,6.041245E-002,6.041245E-002,6.041245E-002,6.041245E-002,
   **   ~~~   ** Supply-to-demand interface deck 1 mass flow rate check value iteration history trace: 6.041245E-002,6.041245E-002,6.041245E-002,6.041245E-002,6.041245E-002,6.041245E-002,6.041245E-002,6.041245E-002,6.041245E-002,6.041245E-002,
   **   ~~~   ** Air System Named = CENTRAL SYSTEM did not converge for energy
   **   ~~~   ** Check values should be zero. Most Recent values listed first.
   **   ~~~   ** Demand-to-Supply interface energy check value iteration history trace: 1182.947056,1182.947056,1182.947056,1182.947056,1182.947056,1182.947056,1182.947056,1182.947056,1182.947056,1182.947056,
   **   ~~~   ** Supply-to-demand interface deck 1 energy check value iteration history trace: 2147.674205,2147.674205,2147.674205,2147.674205,2147.674204,2147.674204,2147.674204,2147.674204,2147.674204,2147.674204,
   ** Warning ** SimHVAC: Maximum iterations (20) exceeded for all HVAC loops, at ANNUAL, 12/12 11:45 - 11:49
   **   ~~~   ** The solution for one or more of the Air Loop HVAC systems did not appear to converge
   **   ~~~   ** Air System Named = CENTRAL SYSTEM did not converge for mass flow rate
   **   ~~~   ** Check values should be zero. Most Recent values listed first.
   **   ~~~   ** Demand-to-Supply interface mass flow rate check value iteration history trace: 6.126587E-002,6.126587E-002,6.126587E-002,6.126587E-002,6.126587E-002,6.126587E-002,6.126587E-002,6.126587E-002,6.126587E-002,6.126587E-002,
   **   ~~~   ** Supply-to-demand interface deck 1 mass flow rate check value iteration history trace: 6.126587E-002,6.126587E-002,6.126587E-002,6.126587E-002,6.126587E-002,6.126587E-002,6.126587E-002,6.126587E-002,6.126587E-002,6.126587E-002,
   **   ~~~   ** Air System Named = CENTRAL SYSTEM did not converge for energy
   **   ~~~   ** Check values should be zero. Most Recent values listed first.
   **   ~~~   ** Demand-to-Supply interface energy check value iteration history trace: 1211.643916,1211.643916,1211.643916,1211.643915,1211.643915,1211.643915,1211.643915,1211.643915,1211.643915,1211.643915,
   **   ~~~   ** Supply-to-demand interface deck 1 energy check value iteration history trace: 2091.698473,2091.698473,2091.698473,2091.698473,2091.698473,2091.698473,2091.698472,2091.698472,2091.698472,2091.698472,
   ************* Simulation Error Summary *************
   ** Warning ** The following Report Variables were requested but not generated -- check.rdd file
   **   ~~~   ** Either the IDF did not contain these elements, the variable name is misspelled,
   **   ~~~   ** or the requested variable is an advanced output which requires Output : Diagnostics, DisplayAdvancedReportVariables;
   ************* Key=*, VarName=BASEBOARD TOTAL HEATING ENERGY, Frequency=
   ************* Key=*, VarName=WATER HEATER NATURALGAS ENERGY, Frequency=
   ************* Key=*, VarName=COOLING COIL TOTAL HEATING ENERGY, Frequency=
   ************* There are 34 unused schedules in input.
   ************* There are 388 unused week schedules in input.
   ************* There are 396 unused day schedules in input.
   ************* Use Output:Diagnostics,DisplayUnusedSchedules; to see them.
   *************
   ************* ===== Recurring Error Summary =====
   ************* The following recurring error messages occurred.
   *************
   *************  ** Warning ** "TOTAL HOT WATER LOAD" - Target water temperature should be less than or equal to the hot water temperature error continues...
   *************  **   ~~~   **   This error occurred 55419 total times;
   *************  **   ~~~   **   during Warmup 0 times;
   *************  **   ~~~   **   during Sizing 0 times.
   *************  **   ~~~   **   Max=6.447383  Min=1.869617E-004
   *************
   *************  ** Warning ** SimHVAC: Exceeding Maximum iterations for all HVAC loops, during ANNUAL continues
   *************  **   ~~~   **   This error occurred 1 total times;
   *************  **   ~~~   **   during Warmup 0 times;
   *************  **   ~~~   **   during Sizing 0 times.
   *************
   *************
   ************* ===== Final Error Summary =====
   ************* The following error categories occurred.  Consider correcting or noting.
   ************* Loads Initialization did not Converge
   ************* ..1) very high thermal mass such as very thick concrete (solution: increase max number of warmup
   ************* ..   days in the BUILDING object);
   ************* ..2) moderate mass and inadequate space conditioning such that the building keeps getting warmer
   ************* ..   and warmer on successive days (solution: add HVAC, check building thermal properties,
   ************* ..   check if infiltration is included, make sure HVAC properly controlled);
   ************* ..3) a soil layer modeled below the concrete slab - (solution remove this layer and read about
   ************* ..   ground temperatures in the Auxiliary Programs document).
   ************* ..4) unreasonable (too small) limits in the BUILDING object for temperature (.4 default) or
   ************* ..   loads tolerances (.04 default)
   ************* Nominally Unused Constructions
   ************* ..The nominally unused constructions warning is provided to alert you to potential conditions that can cause
   ************* ..extra time during simulation. Each construction is calculated by the algorithm indicated in the HeatBalanceAlgorithm
   ************* ..object. You may remove the constructions indicated (when you use the DisplayExtraWarnings option).
   *************
   ************* EnergyPlus Warmup Error Summary. During Warmup: 1 Warning; 1 Severe Errors.
   ************* EnergyPlus Sizing Error Summary. During Sizing: 4 Warning; 0 Severe Errors.
   ************* EnergyPlus Completed Successfully-- 55452 Warning; 1 Severe Errors; Elapsed Time=00hr 01min 29.02sec
