Program Version,EnergyPlus, Version 22.2.0-c249759bad, YMD=2023.09.01 20:10,
   ************* Beginning Zone Sizing Calculations
   ** Warning ** ProcessScheduleInput: Schedule:Constant="ALWAYS ON DISCRETE", Schedule Type Limits Name="ONOFF" not found -- will not be validated
   ** Warning ** Foundation:Kiva="KIVA FOUNDATION", no Interior Horizontal Insulation Material Name defined
   **   ~~~   ** Interior Horizontal Insulation Depth will not be used.
   ** Warning ** CheckUsedConstructions: There are 15 nominally unused constructions in input.
   **   ~~~   ** Each Unused construction is shown.
   ************* Construction=INTERIOR FLOOR
   ************* Construction=INTERIOR WINDOW
   ************* Construction=EXTERIOR DOOR
   ************* Construction=INTERIOR DOOR
   ************* Construction=GABLE CONSTRUCTION
   ************* Construction=CRAWL_FLOOR
   ************* Construction=INSULATED PIPE
   ************* Construction=PLAIN PIPE
   ************* Construction=TDD PIPE
   ************* Construction=TDD DOME
   ************* Construction=TDD DIFFUSER
   ************* Construction=CRAWL WALL
   ************* Construction=CEILING-FLOOR-LAYER
   ************* Construction=SLAB CONSTRUCTION W FULL R10 INSULATION
   ************* Construction=SLAB CONSTRUCTION W FULL R5 INSULATION
   ** Warning ** GetDXCoils: Coil:Heating:DX:SingleSpeed="DX_HEATING_COIL" curve values
   **   ~~~   ** ... Defrost Energy Input Ratio Function of Temperature Curve Name = DEFROSTEIR output is not equal to 1.0 (+ or - 10%) at rated conditions.
   **   ~~~   ** ... Curve output at rated conditions = 0.152
   ************* Beginning System Sizing Calculations
   ************* Beginning Plant Sizing Calculations
   ** Warning ** Coil:WaterHeating:AirToWaterHeatPump:Wrapped "HEAT PUMP WATER HEATER EVAPORATOR": Rated air volume flow rate per watt of rated total water heating capacity is out of range
   **   ~~~   ** Min Rated Vol Flow Per Watt=[4.027E-005], Rated Vol Flow Per Watt=[1.510E-004], Max Rated Vol Flow Per Watt=[8.056E-005]. See Input-Output Reference Manual for valid range.
   ************* SizeFan: : Potential issue with equipment sizing for Fan:OnOff HEAT PUMP WATER HEATER FAN
   **   ~~~   ** User-Specified Maximum Flow Rate [m3/s] = 0.22653
   **   ~~~   ** differs from Design Size Maximum Flow Rate [m3/s] = 7.55250E-002
   **   ~~~   ** This may, or may not, indicate mismatched component sizes.
   **   ~~~   ** Verify that the value entered is intended and is consistent with other components.
   ** Warning ** Water heater = WATER HEATER TANK:  Recovery Efficiency and Energy Factor could not be calculated during the test for standard ratings
   **   ~~~   ** Setpoint was never recovered and/or heater never turned on
   ** Warning ** Check input. Pump nominal power or motor efficiency is set to 0, for pump=MAINS PRESSURE
   ** Warning ** Output:Meter: invalid Key Name="ELECTRIC_RANGE:INTERIOREQUIPMENT:ELECTRICITY" - not found.
   ** Warning ** Output:Meter: invalid Key Name="ELECTRIC_DRYER:INTERIOREQUIPMENT:ELECTRICITY" - not found.
   ** Warning ** Output:Meter: invalid Key Name="HEATRECOVERY:ELECTRICITY" - not found.
   ** Warning ** Output:Meter: invalid Key Name="HEATING:NATURALGAS" - not found.
   ** Warning ** Output:Meter: invalid Key Name="WATERSYSTEMS:NATURALGAS" - not found.
   ** Warning ** Output:Meter: invalid Key Name="PROPANE:FACILITY" - not found.
   ** Warning ** Output:Meter: invalid Key Name="HEATING:PROPANE" - not found.
   ************* Testing Individual Branch Integrity
   ************* All Branches passed integrity testing
   ************* Testing Individual Supply Air Path Integrity
   ************* All Supply Air Paths passed integrity testing
   ************* Testing Individual Return Air Path Integrity
   ************* All Return Air Paths passed integrity testing
   ************* No node connection errors were found.
   ************* Beginning Simulation
   ** Warning ** AirflowNetwork::Solver::validate_distribution: Heat pump water heater is simulated along with an AirflowNetwork but is not included in the AirflowNetwork.
   ** Warning ** CalcEquipmentFlowRates: "TOTAL HOT WATER LOAD" - Target water temperature is greater than the hot water temperature by (4.09 C)
   **   ~~~   **  Environment=EXTREME_WINTER, at Simulation time=01/20 07:00 - 07:15
   **   ~~~   ** ...target water temperature     = 53.33 C
   **   ~~~   ** ...hot water temperature        = 49.25 C
   **   ~~~   ** ...Target water temperature should be less than or equal to the hot water temperature. Verify temperature setpoints and schedules.
   ** Warning ** SimHVAC: Maximum iterations (20) exceeded for all HVAC loops, at EXTREME_WINTER, 01/20 12:03 - 12:05
   **   ~~~   ** The solution for one or more of the Air Loop HVAC systems did not appear to converge
   **   ~~~   ** Air System Named = CENTRAL SYSTEM did not converge for mass flow rate
   **   ~~~   ** Check values should be zero. Most Recent values listed first.
   **   ~~~   ** Demand-to-Supply interface mass flow rate check value iteration history trace: 7.172082E-002,7.172082E-002,7.172082E-002,7.172082E-002,7.172082E-002,7.172082E-002,7.172082E-002,7.172082E-002,7.172082E-002,7.172082E-002,
   **   ~~~   ** Supply-to-demand interface deck 1 mass flow rate check value iteration history trace: 7.172082E-002,7.172082E-002,7.172082E-002,7.172082E-002,7.172082E-002,7.172082E-002,7.172082E-002,7.172082E-002,7.172082E-002,7.172082E-002,
   **   ~~~   ** Air System Named = CENTRAL SYSTEM did not converge for energy
   **   ~~~   ** Check values should be zero. Most Recent values listed first.
   **   ~~~   ** Demand-to-Supply interface energy check value iteration history trace: 1421.363408,1421.363408,1421.363408,1421.363407,1421.363407,1421.363407,1421.363407,1421.363407,1421.363407,1421.363407,
   **   ~~~   ** Supply-to-demand interface deck 1 energy check value iteration history trace: 2243.189248,2243.189248,2243.189247,2243.189247,2243.189247,2243.189247,2243.189247,2243.189247,2243.189246,2243.189246,
   ** Warning ** SimHVAC: Maximum iterations (20) exceeded for all HVAC loops, at EXTREME_WINTER, 01/26 03:23 - 03:26
   **   ~~~   ** The solution for one or more of the Air Loop HVAC systems did not appear to converge
   **   ~~~   ** Air System Named = CENTRAL SYSTEM did not converge for mass flow rate
   **   ~~~   ** Check values should be zero. Most Recent values listed first.
   **   ~~~   ** Demand-to-Supply interface mass flow rate check value iteration history trace: 8.226088E-002,8.226088E-002,8.226088E-002,8.226088E-002,8.226088E-002,8.226088E-002,8.226088E-002,8.226088E-002,8.226088E-002,8.226088E-002,
   **   ~~~   ** Supply-to-demand interface deck 1 mass flow rate check value iteration history trace: 8.226088E-002,8.226088E-002,8.226088E-002,8.226088E-002,8.226088E-002,8.226088E-002,8.226088E-002,8.226088E-002,8.226088E-002,8.226088E-002,
   **   ~~~   ** Air System Named = CENTRAL SYSTEM did not converge for energy
   **   ~~~   ** Check values should be zero. Most Recent values listed first.
   **   ~~~   ** Demand-to-Supply interface energy check value iteration history trace: 1535.770888,1535.770888,1535.770888,1535.770888,1535.770888,1535.770888,1535.770888,1535.770888,1535.770888,1535.770888,
   **   ~~~   ** Supply-to-demand interface deck 1 energy check value iteration history trace: 2368.029272,2368.029272,2368.029272,2368.029271,2368.029271,2368.029271,2368.029271,2368.029271,2368.029271,2368.029271,
   ** Warning ** SimHVAC: Maximum iterations (20) exceeded for all HVAC loops, at ANNUAL, 01/17 11:15 - 11:30
   **   ~~~   ** The solution for one or more of the Air Loop HVAC systems did not appear to converge
   **   ~~~   ** Air System Named = CENTRAL SYSTEM did not converge for mass flow rate
   **   ~~~   ** Check values should be zero. Most Recent values listed first.
   **   ~~~   ** Demand-to-Supply interface mass flow rate check value iteration history trace: 7.495533E-002,7.495533E-002,7.495533E-002,7.495533E-002,7.495533E-002,7.495533E-002,7.495533E-002,7.495533E-002,7.495533E-002,7.495533E-002,
   **   ~~~   ** Supply-to-demand interface deck 1 mass flow rate check value iteration history trace: 7.495533E-002,7.495533E-002,7.495533E-002,7.495533E-002,7.495533E-002,7.495533E-002,7.495533E-002,7.495533E-002,7.495533E-002,7.495533E-002,
   **   ~~~   ** Air System Named = CENTRAL SYSTEM did not converge for energy
   **   ~~~   ** Check values should be zero. Most Recent values listed first.
   **   ~~~   ** Demand-to-Supply interface energy check value iteration history trace: 1485.330117,1485.330117,1485.330117,1485.330117,1485.330117,1485.330117,1485.330117,1485.330117,1485.330117,1485.330117,
   **   ~~~   ** Supply-to-demand interface deck 1 energy check value iteration history trace: 2514.770523,2514.770523,2514.770523,2514.770523,2514.770523,2514.770523,2514.770522,2514.770522,2514.770522,2514.770522,
   ** Warning ** SimHVAC: Maximum iterations (20) exceeded for all HVAC loops, at ANNUAL, 01/18 11:05 - 11:10
   **   ~~~   ** The solution for one or more of the Air Loop HVAC systems did not appear to converge
   **   ~~~   ** Air System Named = CENTRAL SYSTEM did not converge for mass flow rate
   **   ~~~   ** Check values should be zero. Most Recent values listed first.
   **   ~~~   ** Demand-to-Supply interface mass flow rate check value iteration history trace: 7.013096E-002,7.013096E-002,7.013096E-002,7.013096E-002,7.013096E-002,7.013096E-002,7.013096E-002,7.013096E-002,7.013096E-002,7.013096E-002,
   **   ~~~   ** Supply-to-demand interface deck 1 mass flow rate check value iteration history trace: 7.013096E-002,7.013096E-002,7.013096E-002,7.013096E-002,7.013096E-002,7.013096E-002,7.013096E-002,7.013096E-002,7.013096E-002,7.013096E-002,
   **   ~~~   ** Air System Named = CENTRAL SYSTEM did not converge for energy
   **   ~~~   ** Check values should be zero. Most Recent values listed first.
   **   ~~~   ** Demand-to-Supply interface energy check value iteration history trace: 1379.057349,1379.057349,1379.057348,1379.057348,1379.057348,1379.057348,1379.057348,1379.057348,1379.057348,1379.057348,
   **   ~~~   ** Supply-to-demand interface deck 1 energy check value iteration history trace: 2341.420657,2341.420657,2341.420657,2341.420657,2341.420657,2341.420657,2341.420656,2341.420656,2341.420656,2341.420656,
   ** Warning ** SimHVAC: Maximum iterations (20) exceeded for all HVAC loops, at ANNUAL, 02/02 10:45 - 11:00
   **   ~~~   ** The solution for one or more of the Air Loop HVAC systems did not appear to converge
   **   ~~~   ** Air System Named = CENTRAL SYSTEM did not converge for mass flow rate
   **   ~~~   ** Check values should be zero. Most Recent values listed first.
   **   ~~~   ** Demand-to-Supply interface mass flow rate check value iteration history trace: 6.316997E-002,6.316997E-002,6.316997E-002,6.316997E-002,6.316997E-002,6.316997E-002,6.316997E-002,6.316997E-002,6.316997E-002,6.316997E-002,
   **   ~~~   ** Supply-to-demand interface deck 1 mass flow rate check value iteration history trace: 6.316997E-002,6.316997E-002,6.316997E-002,6.316997E-002,6.316997E-002,6.316997E-002,6.316997E-002,6.316997E-002,6.316997E-002,6.316997E-002,
   **   ~~~   ** Air System Named = CENTRAL SYSTEM did not converge for energy
   **   ~~~   ** Check values should be zero. Most Recent values listed first.
   **   ~~~   ** Demand-to-Supply interface energy check value iteration history trace: 1251.798865,1251.798865,1251.798865,1251.798865,1251.798865,1251.798865,1251.798865,1251.798865,1251.798865,1251.798865,
   **   ~~~   ** Supply-to-demand interface deck 1 energy check value iteration history trace: 2181.497452,2181.497452,2181.497452,2181.497452,2181.497452,2181.497452,2181.497452,2181.497452,2181.497451,2181.497451,
   ** Warning ** SimHVAC: Maximum iterations (20) exceeded for all HVAC loops, at ANNUAL, 02/10 21:53 - 22:00
   **   ~~~   ** The solution for one or more of the Air Loop HVAC systems did not appear to converge
   **   ~~~   ** Air System Named = CENTRAL SYSTEM did not converge for mass flow rate
   **   ~~~   ** Check values should be zero. Most Recent values listed first.
   **   ~~~   ** Demand-to-Supply interface mass flow rate check value iteration history trace: 6.241617E-002,6.241617E-002,6.241617E-002,6.241617E-002,6.241617E-002,6.241617E-002,6.241617E-002,6.241617E-002,6.241617E-002,6.241617E-002,
   **   ~~~   ** Supply-to-demand interface deck 1 mass flow rate check value iteration history trace: 6.241617E-002,6.241617E-002,6.241617E-002,6.241617E-002,6.241617E-002,6.241617E-002,6.241617E-002,6.241617E-002,6.241617E-002,6.241617E-002,
   **   ~~~   ** Air System Named = CENTRAL SYSTEM did not converge for energy
   **   ~~~   ** Check values should be zero. Most Recent values listed first.
   **   ~~~   ** Demand-to-Supply interface energy check value iteration history trace: 1235.968850,1235.968850,1235.968850,1235.968850,1235.968850,1235.968850,1235.968850,1235.968850,1235.968850,1235.968850,
   **   ~~~   ** Supply-to-demand interface deck 1 energy check value iteration history trace: 2093.939040,2093.939040,2093.939039,2093.939039,2093.939039,2093.939039,2093.939039,2093.939039,2093.939039,2093.939039,
   ** Warning ** SimHVAC: Maximum iterations (20) exceeded for all HVAC loops, at ANNUAL, 03/04 09:45 - 09:49
   **   ~~~   ** The solution for one or more of the Air Loop HVAC systems did not appear to converge
   **   ~~~   ** Air System Named = CENTRAL SYSTEM did not converge for mass flow rate
   **   ~~~   ** Check values should be zero. Most Recent values listed first.
   **   ~~~   ** Demand-to-Supply interface mass flow rate check value iteration history trace: 7.458034E-002,7.458034E-002,7.458034E-002,7.458034E-002,7.458034E-002,7.458034E-002,7.458034E-002,7.458034E-002,7.458034E-002,7.458034E-002,
   **   ~~~   ** Supply-to-demand interface deck 1 mass flow rate check value iteration history trace: 7.458034E-002,7.458034E-002,7.458034E-002,7.458034E-002,7.458034E-002,7.458034E-002,7.458034E-002,7.458034E-002,7.458034E-002,7.458034E-002,
   **   ~~~   ** Air System Named = CENTRAL SYSTEM did not converge for energy
   **   ~~~   ** Check values should be zero. Most Recent values listed first.
   **   ~~~   ** Demand-to-Supply interface energy check value iteration history trace: 1469.683072,1469.683071,1469.683071,1469.683071,1469.683071,1469.683071,1469.683071,1469.683071,1469.683071,1469.683071,
   **   ~~~   ** Supply-to-demand interface deck 1 energy check value iteration history trace: 2520.504845,2520.504845,2520.504844,2520.504844,2520.504844,2520.504844,2520.504844,2520.504844,2520.504844,2520.504843,
   ** Warning ** SimHVAC: Maximum iterations (20) exceeded for all HVAC loops, at ANNUAL, 03/11 09:45 - 09:49
   **   ~~~   ** The solution for one or more of the Air Loop HVAC systems did not appear to converge
   **   ~~~   ** Air System Named = CENTRAL SYSTEM did not converge for mass flow rate
   **   ~~~   ** Check values should be zero. Most Recent values listed first.
   **   ~~~   ** Demand-to-Supply interface mass flow rate check value iteration history trace: 6.918751E-002,6.918751E-002,6.918751E-002,6.918751E-002,6.918751E-002,6.918751E-002,6.918751E-002,6.918751E-002,6.918751E-002,6.918751E-002,
   **   ~~~   ** Supply-to-demand interface deck 1 mass flow rate check value iteration history trace: 6.918751E-002,6.918751E-002,6.918751E-002,6.918751E-002,6.918751E-002,6.918751E-002,6.918751E-002,6.918751E-002,6.918751E-002,6.918751E-002,
   **   ~~~   ** Air System Named = CENTRAL SYSTEM did not converge for energy
   **   ~~~   ** Check values should be zero. Most Recent values listed first.
   **   ~~~   ** Demand-to-Supply interface energy check value iteration history trace: 1363.981184,1363.981184,1363.981184,1363.981184,1363.981184,1363.981184,1363.981184,1363.981183,1363.981183,1363.981183,
   **   ~~~   ** Supply-to-demand interface deck 1 energy check value iteration history trace: 2396.076120,2396.076120,2396.076119,2396.076119,2396.076119,2396.076119,2396.076119,2396.076119,2396.076119,2396.076119,
   ** Warning ** SimHVAC: Maximum iterations (20) exceeded for all HVAC loops, at ANNUAL, 03/29 08:17 - 08:19
   **   ~~~   ** The solution for one or more of the Air Loop HVAC systems did not appear to converge
   **   ~~~   ** Air System Named = CENTRAL SYSTEM did not converge for mass flow rate
   **   ~~~   ** Check values should be zero. Most Recent values listed first.
   **   ~~~   ** Demand-to-Supply interface mass flow rate check value iteration history trace: 8.883192E-002,8.883192E-002,8.883192E-002,8.883192E-002,8.883192E-002,8.883192E-002,8.883192E-002,8.883192E-002,8.883192E-002,8.883192E-002,
   **   ~~~   ** Supply-to-demand interface deck 1 mass flow rate check value iteration history trace: 8.883192E-002,8.883192E-002,8.883192E-002,8.883192E-002,8.883192E-002,8.883192E-002,8.883192E-002,8.883192E-002,8.883192E-002,8.883192E-002,
   **   ~~~   ** Air System Named = CENTRAL SYSTEM did not converge for energy
   **   ~~~   ** Check values should be zero. Most Recent values listed first.
   **   ~~~   ** Demand-to-Supply interface energy check value iteration history trace: 1760.492761,1760.492760,1760.492760,1760.492760,1760.492760,1760.492760,1760.492760,1760.492760,1760.492760,1760.492760,
   **   ~~~   ** Supply-to-demand interface deck 1 energy check value iteration history trace: 2691.997585,2691.997585,2691.997585,2691.997585,2691.997584,2691.997584,2691.997584,2691.997584,2691.997584,2691.997583,
   ** Warning ** SimHVAC: Maximum iterations (20) exceeded for all HVAC loops, at ANNUAL, 04/05 06:38 - 06:45
   **   ~~~   ** The solution for one or more of the Air Loop HVAC systems did not appear to converge
   **   ~~~   ** Air System Named = CENTRAL SYSTEM did not converge for mass flow rate
   **   ~~~   ** Check values should be zero. Most Recent values listed first.
   **   ~~~   ** Demand-to-Supply interface mass flow rate check value iteration history trace: 0.165029,0.165029,0.165029,0.165029,0.165029,0.165029,0.165029,0.165029,0.165029,0.165029,
   **   ~~~   ** Supply-to-demand interface deck 1 mass flow rate check value iteration history trace: 0.165029,0.165029,0.165029,0.165029,0.165029,0.165029,0.165029,0.165029,0.165029,0.165029,
   **   ~~~   ** Air System Named = CENTRAL SYSTEM did not converge for energy
   **   ~~~   ** Check values should be zero. Most Recent values listed first.
   **   ~~~   ** Demand-to-Supply interface energy check value iteration history trace: 3920.641135,3920.641136,3920.641137,3920.641138,3920.641138,3920.641139,3920.641140,3920.641141,3920.641142,3920.641142,
   **   ~~~   ** Supply-to-demand interface deck 1 energy check value iteration history trace: 2118.904502,2118.904503,2118.904503,2118.904504,2118.904504,2118.904504,2118.904505,2118.904505,2118.904506,2118.904506,
   ** Warning ** SimHVAC: Maximum iterations (20) exceeded for all HVAC loops, at ANNUAL, 04/12 08:21 - 08:22
   **   ~~~   ** The solution for one or more of the Air Loop HVAC systems did not appear to converge
   **   ~~~   ** Air System Named = CENTRAL SYSTEM did not converge for mass flow rate
   **   ~~~   ** Check values should be zero. Most Recent values listed first.
   **   ~~~   ** Demand-to-Supply interface mass flow rate check value iteration history trace: 0.268504,0.268504,0.268504,0.268504,0.268504,0.268504,0.268504,0.268504,0.268504,0.268504,
   **   ~~~   ** Supply-to-demand interface deck 1 mass flow rate check value iteration history trace: 0.268504,0.268504,0.268504,0.268504,0.268504,0.268504,0.268504,0.268504,0.268504,0.268504,
   **   ~~~   ** Air System Named = CENTRAL SYSTEM did not converge for energy
   **   ~~~   ** Check values should be zero. Most Recent values listed first.
   **   ~~~   ** Demand-to-Supply interface energy check value iteration history trace: 6352.803098,6352.803099,6352.803100,6352.803102,6352.803103,6352.803105,6352.803106,6352.803107,6352.803109,6352.803110,
   **   ~~~   ** Supply-to-demand interface deck 1 energy check value iteration history trace: 3346.997179,3346.997180,3346.997180,3346.997181,3346.997182,3346.997183,3346.997183,3346.997184,3346.997185,3346.997186,
   ** Warning ** SimHVAC: Maximum iterations (20) exceeded for all HVAC loops, at ANNUAL, 04/13 01:00 - 01:15
   **   ~~~   ** The solution for one or more of the Air Loop HVAC systems did not appear to converge
   **   ~~~   ** Air System Named = CENTRAL SYSTEM did not converge for mass flow rate
   **   ~~~   ** Check values should be zero. Most Recent values listed first.
   **   ~~~   ** Demand-to-Supply interface mass flow rate check value iteration history trace: 9.701619E-002,9.701619E-002,9.701619E-002,9.701619E-002,9.701619E-002,9.701619E-002,9.701619E-002,9.701619E-002,9.701619E-002,9.701619E-002,
   **   ~~~   ** Supply-to-demand interface deck 1 mass flow rate check value iteration history trace: 9.701619E-002,9.701619E-002,9.701619E-002,9.701619E-002,9.701619E-002,9.701619E-002,9.701619E-002,9.701619E-002,9.701619E-002,9.701619E-002,
   **   ~~~   ** Air System Named = CENTRAL SYSTEM did not converge for energy
   **   ~~~   ** Check values should be zero. Most Recent values listed first.
   **   ~~~   ** Demand-to-Supply interface energy check value iteration history trace: 2428.211130,2428.211130,2428.211131,2428.211131,2428.211132,2428.211133,2428.211133,2428.211134,2428.211134,2428.211135,
   **   ~~~   ** Supply-to-demand interface deck 1 energy check value iteration history trace: 1205.740021,1205.740021,1205.740021,1205.740021,1205.740022,1205.740022,1205.740022,1205.740023,1205.740023,1205.740023,
   ** Warning ** SimHVAC: Maximum iterations (20) exceeded for all HVAC loops, at ANNUAL, 04/16 06:45 - 07:00
   **   ~~~   ** The solution for one or more of the Air Loop HVAC systems did not appear to converge
   **   ~~~   ** Air System Named = CENTRAL SYSTEM did not converge for mass flow rate
   **   ~~~   ** Check values should be zero. Most Recent values listed first.
   **   ~~~   ** Demand-to-Supply interface mass flow rate check value iteration history trace: 7.557267E-002,7.557267E-002,7.557267E-002,7.557267E-002,7.557267E-002,7.557267E-002,7.557267E-002,7.557267E-002,7.557267E-002,7.557267E-002,
   **   ~~~   ** Supply-to-demand interface deck 1 mass flow rate check value iteration history trace: 7.557267E-002,7.557267E-002,7.557267E-002,7.557267E-002,7.557267E-002,7.557267E-002,7.557267E-002,7.557267E-002,7.557267E-002,7.557267E-002,
   **   ~~~   ** Air System Named = CENTRAL SYSTEM did not converge for energy
   **   ~~~   ** Check values should be zero. Most Recent values listed first.
   **   ~~~   ** Demand-to-Supply interface energy check value iteration history trace: 1497.668492,1497.668492,1497.668491,1497.668491,1497.668491,1497.668491,1497.668491,1497.668491,1497.668491,1497.668491,
   **   ~~~   ** Supply-to-demand interface deck 1 energy check value iteration history trace: 2377.194056,2377.194056,2377.194055,2377.194055,2377.194055,2377.194055,2377.194055,2377.194055,2377.194055,2377.194055,
   ** Warning ** SimHVAC: Maximum iterations (20) exceeded for all HVAC loops, at ANNUAL, 04/18 17:45 - 18:00
   **   ~~~   ** The solution for one or more of the Air Loop HVAC systems did not appear to converge
   **   ~~~   ** Air System Named = CENTRAL SYSTEM did not converge for mass flow rate
   **   ~~~   ** Check values should be zero. Most Recent values listed first.
   **   ~~~   ** Demand-to-Supply interface mass flow rate check value iteration history trace: 0.121096,0.121096,0.121096,0.121096,0.121096,0.121096,0.121096,0.121096,0.121096,0.121096,
   **   ~~~   ** Supply-to-demand interface deck 1 mass flow rate check value iteration history trace: 0.121096,0.121096,0.121096,0.121096,0.121096,0.121096,0.121096,0.121096,0.121096,0.121096,
   **   ~~~   ** Air System Named = CENTRAL SYSTEM did not converge for energy
   **   ~~~   ** Check values should be zero. Most Recent values listed first.
   **   ~~~   ** Demand-to-Supply interface energy check value iteration history trace: 2870.541530,2870.541531,2870.541531,2870.541531,2870.541531,2870.541531,2870.541532,2870.541532,2870.541532,2870.541532,
   **   ~~~   ** Supply-to-demand interface deck 1 energy check value iteration history trace: 1391.756967,1391.756967,1391.756967,1391.756967,1391.756967,1391.756967,1391.756967,1391.756967,1391.756967,1391.756968,
   ************* Simulation Error Summary *************
   ** Warning ** The following Report Variables were requested but not generated -- check.rdd file
   **   ~~~   ** Either the IDF did not contain these elements, the variable name is misspelled,
   **   ~~~   ** or the requested variable is an advanced output which requires Output : Diagnostics, DisplayAdvancedReportVariables;
   ************* Key=*, VarName=BASEBOARD TOTAL HEATING ENERGY, Frequency=
   ************* Key=*, VarName=WATER HEATER NATURALGAS ENERGY, Frequency=
   ************* Key=*, VarName=COOLING COIL TOTAL HEATING ENERGY, Frequency=
   ************* There are 34 unused schedules in input.
   ************* There are 388 unused week schedules in input.
   ************* There are 396 unused day schedules in input.
   ************* Use Output:Diagnostics,DisplayUnusedSchedules; to see them.
   *************
   ************* ===== Recurring Error Summary =====
   ************* The following recurring error messages occurred.
   *************
   *************  ** Warning ** "TOTAL HOT WATER LOAD" - Target water temperature should be less than or equal to the hot water temperature error continues...
   *************  **   ~~~   **   This error occurred 186093 total times;
   *************  **   ~~~   **   during Warmup 0 times;
   *************  **   ~~~   **   during Sizing 0 times.
   *************  **   ~~~   **   Max=11.733207  Min=3.259769E-004
   *************
   *************  ** Warning ** SimHVAC: Exceeding Maximum iterations for all HVAC loops, during ANNUAL continues
   *************  **   ~~~   **   This error occurred 12 total times;
   *************  **   ~~~   **   during Warmup 0 times;
   *************  **   ~~~   **   during Sizing 0 times.
   *************
   *************
   ************* ===== Final Error Summary =====
   ************* The following error categories occurred.  Consider correcting or noting.
   ************* Nominally Unused Constructions
   ************* ..The nominally unused constructions warning is provided to alert you to potential conditions that can cause
   ************* ..extra time during simulation. Each construction is calculated by the algorithm indicated in the HeatBalanceAlgorithm
   ************* ..object. You may remove the constructions indicated (when you use the DisplayExtraWarnings option).
   *************
   ************* EnergyPlus Warmup Error Summary. During Warmup: 1 Warning; 0 Severe Errors.
   ************* EnergyPlus Sizing Error Summary. During Sizing: 4 Warning; 0 Severe Errors.
   ************* EnergyPlus Completed Successfully-- 186136 Warning; 0 Severe Errors; Elapsed Time=00hr 01min 45.17sec
