Program Version,EnergyPlus, Version 22.2.0-c249759bad, YMD=2023.09.01 15:27,
   ************* Beginning Zone Sizing Calculations
   ** Warning ** ProcessScheduleInput: Schedule:Constant="ALWAYS ON DISCRETE", Schedule Type Limits Name="ONOFF" not found -- will not be validated
   ** Warning ** Foundation:Kiva="KIVA FOUNDATION", no Interior Horizontal Insulation Material Name defined
   **   ~~~   ** Interior Horizontal Insulation Depth will not be used.
   ** Warning ** CheckUsedConstructions: There are 15 nominally unused constructions in input.
   **   ~~~   ** Each Unused construction is shown.
   ************* Construction=INTERIOR FLOOR
   ************* Construction=INTERIOR WINDOW
   ************* Construction=EXTERIOR DOOR
   ************* Construction=INTERIOR DOOR
   ************* Construction=GABLE CONSTRUCTION
   ************* Construction=CRAWL_FLOOR
   ************* Construction=INSULATED PIPE
   ************* Construction=PLAIN PIPE
   ************* Construction=TDD PIPE
   ************* Construction=TDD DOME
   ************* Construction=TDD DIFFUSER
   ************* Construction=CRAWL WALL
   ************* Construction=CEILING-FLOOR-LAYER
   ************* Construction=SLAB CONSTRUCTION W FULL R10 INSULATION
   ************* Construction=SLAB CONSTRUCTION W FULL R5 INSULATION
   ** Warning ** GetDXCoils: Coil:Heating:DX:SingleSpeed="DX_HEATING_COIL" curve values
   **   ~~~   ** ... Defrost Energy Input Ratio Function of Temperature Curve Name = DEFROSTEIR output is not equal to 1.0 (+ or - 10%) at rated conditions.
   **   ~~~   ** ... Curve output at rated conditions = 0.152
   ************* Beginning System Sizing Calculations
   ************* Beginning Plant Sizing Calculations
   ** Warning ** SizeDXCoil Coil:Cooling:DX:SingleSpeed DX_COOLING_COIL
   **   ~~~   ** ...Gross Rated Total Cooling Capacity [W] will be limited by the maximum rated volume flow per rated total capacity ratio.
   **   ~~~   ** ...DX coil volume flow rate ( m3/s ) = 0.380062
   **   ~~~   ** ...Requested capacity ( W ) = 5775.022
   **   ~~~   ** ...Requested flow/capacity ratio ( m3/s/W ) = 6.581E-005
   **   ~~~   ** ...Maximum flow/capacity ratio ( m3/s/W ) = 6.041E-005
   **   ~~~   ** ...Adjusted capacity ( W ) = 6291.382
   ** Warning ** Coil:WaterHeating:AirToWaterHeatPump:Wrapped "HEAT PUMP WATER HEATER EVAPORATOR": Rated air volume flow rate per watt of rated total water heating capacity is out of range
   **   ~~~   ** Min Rated Vol Flow Per Watt=[4.027E-005], Rated Vol Flow Per Watt=[1.386E-004], Max Rated Vol Flow Per Watt=[8.056E-005]. See Input-Output Reference Manual for valid range.
   ** Warning ** Water heater = WATER HEATER TANK:  Recovery Efficiency and Energy Factor could not be calculated during the test for standard ratings
   **   ~~~   ** Setpoint was never recovered and/or heater never turned on
   ** Warning ** Check input. Pump nominal power or motor efficiency is set to 0, for pump=MAINS PRESSURE
   ** Warning ** Output:Meter: invalid Key Name="ELECTRIC_RANGE:INTERIOREQUIPMENT:ELECTRICITY" - not found.
   ** Warning ** Output:Meter: invalid Key Name="ELECTRIC_DRYER:INTERIOREQUIPMENT:ELECTRICITY" - not found.
   ** Warning ** Output:Meter: invalid Key Name="HEATRECOVERY:ELECTRICITY" - not found.
   ** Warning ** Output:Meter: invalid Key Name="HEATING:NATURALGAS" - not found.
   ** Warning ** Output:Meter: invalid Key Name="WATERSYSTEMS:NATURALGAS" - not found.
   ** Warning ** Output:Meter: invalid Key Name="PROPANE:FACILITY" - not found.
   ** Warning ** Output:Meter: invalid Key Name="HEATING:PROPANE" - not found.
   ************* Testing Individual Branch Integrity
   ************* All Branches passed integrity testing
   ************* Testing Individual Supply Air Path Integrity
   ************* All Supply Air Paths passed integrity testing
   ************* Testing Individual Return Air Path Integrity
   ************* All Return Air Paths passed integrity testing
   ************* No node connection errors were found.
   ************* Beginning Simulation
   ** Warning ** AirflowNetwork::Solver::validate_distribution: Heat pump water heater is simulated along with an AirflowNetwork but is not included in the AirflowNetwork.
   ** Warning ** CalcEquipmentFlowRates: "TOTAL HOT WATER LOAD" - Target water temperature is greater than the hot water temperature by (1.66 C)
   **   ~~~   **  Environment=EXTREME_WINTER, at Simulation time=01/20 06:00 - 06:15
   **   ~~~   ** ...target water temperature     = 53.33 C
   **   ~~~   ** ...hot water temperature        = 51.67 C
   **   ~~~   ** ...Target water temperature should be less than or equal to the hot water temperature. Verify temperature setpoints and schedules.
   ** Warning ** SimHVAC: Maximum iterations (20) exceeded for all HVAC loops, at ANNUAL, 02/04 10:48 - 10:51
   **   ~~~   ** The solution for one or more of the Air Loop HVAC systems did not appear to converge
   **   ~~~   ** Air System Named = CENTRAL SYSTEM did not converge for mass flow rate
   **   ~~~   ** Check values should be zero. Most Recent values listed first.
   **   ~~~   ** Demand-to-Supply interface mass flow rate check value iteration history trace: 0.103575,0.103575,0.103575,0.103575,0.103575,0.103575,0.103575,0.103575,0.103575,0.103575,
   **   ~~~   ** Supply-to-demand interface deck 1 mass flow rate check value iteration history trace: 0.103575,0.103575,0.103575,0.103575,0.103575,0.103575,0.103575,0.103575,0.103575,0.103575,
   **   ~~~   ** Air System Named = CENTRAL SYSTEM did not converge for energy
   **   ~~~   ** Check values should be zero. Most Recent values listed first.
   **   ~~~   ** Demand-to-Supply interface energy check value iteration history trace: 2052.615591,2052.615591,2052.615591,2052.615591,2052.615591,2052.615591,2052.615590,2052.615590,2052.615590,2052.615590,
   **   ~~~   ** Supply-to-demand interface deck 1 energy check value iteration history trace: 3174.621833,3174.621833,3174.621832,3174.621832,3174.621832,3174.621832,3174.621832,3174.621832,3174.621831,3174.621831,
   ** Warning ** SimHVAC: Maximum iterations (20) exceeded for all HVAC loops, at ANNUAL, 03/06 14:15 - 14:30
   **   ~~~   ** The solution for one or more of the Air Loop HVAC systems did not appear to converge
   **   ~~~   ** Air System Named = CENTRAL SYSTEM did not converge for energy
   **   ~~~   ** Check values should be zero. Most Recent values listed first.
   **   ~~~   ** Demand-to-Supply interface energy check value iteration history trace: 176.041998,176.041998,176.041998,176.041998,176.041998,176.041998,176.041998,176.041998,176.041998,176.041998,
   **   ~~~   ** Supply-to-demand interface deck 1 energy check value iteration history trace: 294.290669,294.290669,294.290669,294.290669,294.290669,294.290669,294.290669,294.290669,294.290669,294.290669,
   ** Warning ** SimHVAC: Maximum iterations (20) exceeded for all HVAC loops, at ANNUAL, 03/13 13:15 - 13:30
   **   ~~~   ** The solution for one or more of the Air Loop HVAC systems did not appear to converge
   **   ~~~   ** Air System Named = CENTRAL SYSTEM did not converge for mass flow rate
   **   ~~~   ** Check values should be zero. Most Recent values listed first.
   **   ~~~   ** Demand-to-Supply interface mass flow rate check value iteration history trace: 0.103596,0.103596,0.103596,0.103596,0.103596,0.103596,0.103596,0.103596,0.103596,0.103596,
   **   ~~~   ** Supply-to-demand interface deck 1 mass flow rate check value iteration history trace: 0.103596,0.103596,0.103596,0.103596,0.103596,0.103596,0.103596,0.103596,0.103596,0.103596,
   **   ~~~   ** Air System Named = CENTRAL SYSTEM did not converge for energy
   **   ~~~   ** Check values should be zero. Most Recent values listed first.
   **   ~~~   ** Demand-to-Supply interface energy check value iteration history trace: 2053.084919,2053.084919,2053.084919,2053.084918,2053.084918,2053.084918,2053.084918,2053.084918,2053.084918,2053.084918,
   **   ~~~   ** Supply-to-demand interface deck 1 energy check value iteration history trace: 3174.053436,3174.053436,3174.053436,3174.053435,3174.053435,3174.053435,3174.053435,3174.053435,3174.053434,3174.053434,
   ** Warning ** SimHVAC: Maximum iterations (20) exceeded for all HVAC loops, at ANNUAL, 03/26 22:45 - 23:00
   **   ~~~   ** The solution for one or more of the Air Loop HVAC systems did not appear to converge
   **   ~~~   ** Air System Named = CENTRAL SYSTEM did not converge for mass flow rate
   **   ~~~   ** Check values should be zero. Most Recent values listed first.
   **   ~~~   ** Demand-to-Supply interface mass flow rate check value iteration history trace: 8.428134E-002,8.428134E-002,8.428134E-002,8.428134E-002,8.428134E-002,8.428134E-002,8.428134E-002,8.428134E-002,8.428134E-002,8.428134E-002,
   **   ~~~   ** Supply-to-demand interface deck 1 mass flow rate check value iteration history trace: 8.428134E-002,8.428134E-002,8.428134E-002,8.428134E-002,8.428134E-002,8.428134E-002,8.428134E-002,8.428134E-002,8.428134E-002,8.428134E-002,
   **   ~~~   ** Air System Named = CENTRAL SYSTEM did not converge for energy
   **   ~~~   ** Check values should be zero. Most Recent values listed first.
   **   ~~~   ** Demand-to-Supply interface energy check value iteration history trace: 1575.176911,1575.176911,1575.176911,1575.176910,1575.176910,1575.176910,1575.176910,1575.176910,1575.176910,1575.176910,
   **   ~~~   ** Supply-to-demand interface deck 1 energy check value iteration history trace: 2411.823672,2411.823672,2411.823671,2411.823671,2411.823671,2411.823671,2411.823671,2411.823671,2411.823671,2411.823670,
   ** Warning ** SimHVAC: Maximum iterations (20) exceeded for all HVAC loops, at ANNUAL, 04/05 16:00 - 16:15
   **   ~~~   ** The solution for one or more of the Air Loop HVAC systems did not appear to converge
   **   ~~~   ** Air System Named = CENTRAL SYSTEM did not converge for mass flow rate
   **   ~~~   ** Check values should be zero. Most Recent values listed first.
   **   ~~~   ** Demand-to-Supply interface mass flow rate check value iteration history trace: 7.962931E-002,7.962931E-002,7.962931E-002,7.962931E-002,7.962931E-002,7.962931E-002,7.962931E-002,7.962931E-002,7.962931E-002,7.962931E-002,
   **   ~~~   ** Supply-to-demand interface deck 1 mass flow rate check value iteration history trace: 7.962931E-002,7.962931E-002,7.962931E-002,7.962931E-002,7.962931E-002,7.962931E-002,7.962931E-002,7.962931E-002,7.962931E-002,7.962931E-002,
   **   ~~~   ** Air System Named = CENTRAL SYSTEM did not converge for energy
   **   ~~~   ** Check values should be zero. Most Recent values listed first.
   **   ~~~   ** Demand-to-Supply interface energy check value iteration history trace: 1577.989522,1577.989522,1577.989522,1577.989522,1577.989522,1577.989522,1577.989522,1577.989522,1577.989521,1577.989521,
   **   ~~~   ** Supply-to-demand interface deck 1 energy check value iteration history trace: 2633.842699,2633.842699,2633.842699,2633.842699,2633.842699,2633.842699,2633.842699,2633.842698,2633.842698,2633.842698,
   ** Warning ** SimHVAC: Maximum iterations (20) exceeded for all HVAC loops, at ANNUAL, 04/15 10:19 - 10:22
   **   ~~~   ** The solution for one or more of the Air Loop HVAC systems did not appear to converge
   **   ~~~   ** Air System Named = CENTRAL SYSTEM did not converge for mass flow rate
   **   ~~~   ** Check values should be zero. Most Recent values listed first.
   **   ~~~   ** Demand-to-Supply interface mass flow rate check value iteration history trace: 7.761546E-002,7.761546E-002,7.761546E-002,7.761546E-002,7.761546E-002,7.761546E-002,7.761546E-002,7.761546E-002,7.761546E-002,7.761546E-002,
   **   ~~~   ** Supply-to-demand interface deck 1 mass flow rate check value iteration history trace: 7.761546E-002,7.761546E-002,7.761546E-002,7.761546E-002,7.761546E-002,7.761546E-002,7.761546E-002,7.761546E-002,7.761546E-002,7.761546E-002,
   **   ~~~   ** Air System Named = CENTRAL SYSTEM did not converge for energy
   **   ~~~   ** Check values should be zero. Most Recent values listed first.
   **   ~~~   ** Demand-to-Supply interface energy check value iteration history trace: 1529.910607,1529.910607,1529.910607,1529.910606,1529.910606,1529.910606,1529.910606,1529.910606,1529.910606,1529.910606,
   **   ~~~   ** Supply-to-demand interface deck 1 energy check value iteration history trace: 2647.488999,2647.488999,2647.488999,2647.488999,2647.488999,2647.488999,2647.488999,2647.488999,2647.488998,2647.488998,
   ** Warning ** SimHVAC: Maximum iterations (20) exceeded for all HVAC loops, at ANNUAL, 04/23 19:45 - 20:00
   **   ~~~   ** The solution for one or more of the Air Loop HVAC systems did not appear to converge
   **   ~~~   ** Air System Named = CENTRAL SYSTEM did not converge for mass flow rate
   **   ~~~   ** Check values should be zero. Most Recent values listed first.
   **   ~~~   ** Demand-to-Supply interface mass flow rate check value iteration history trace: 9.000336E-002,9.000336E-002,9.000336E-002,9.000336E-002,9.000336E-002,9.000336E-002,9.000336E-002,9.000336E-002,9.000336E-002,9.000336E-002,
   **   ~~~   ** Supply-to-demand interface deck 1 mass flow rate check value iteration history trace: 9.000336E-002,9.000336E-002,9.000336E-002,9.000336E-002,9.000336E-002,9.000336E-002,9.000336E-002,9.000336E-002,9.000336E-002,9.000336E-002,
   **   ~~~   ** Air System Named = CENTRAL SYSTEM did not converge for energy
   **   ~~~   ** Check values should be zero. Most Recent values listed first.
   **   ~~~   ** Demand-to-Supply interface energy check value iteration history trace: 1783.057218,1783.057218,1783.057218,1783.057218,1783.057218,1783.057218,1783.057218,1783.057218,1783.057217,1783.057217,
   **   ~~~   ** Supply-to-demand interface deck 1 energy check value iteration history trace: 3108.963223,3108.963223,3108.963223,3108.963222,3108.963222,3108.963222,3108.963222,3108.963222,3108.963222,3108.963222,
   ** Warning ** SimHVAC: Maximum iterations (20) exceeded for all HVAC loops, at ANNUAL, 04/30 08:24 - 08:26
   **   ~~~   ** The solution for one or more of the Air Loop HVAC systems did not appear to converge
   **   ~~~   ** Air System Named = CENTRAL SYSTEM did not converge for mass flow rate
   **   ~~~   ** Check values should be zero. Most Recent values listed first.
   **   ~~~   ** Demand-to-Supply interface mass flow rate check value iteration history trace: 7.155018E-002,7.155018E-002,7.155018E-002,7.155018E-002,7.155018E-002,7.155018E-002,7.155018E-002,7.155018E-002,7.155018E-002,7.155018E-002,
   **   ~~~   ** Supply-to-demand interface deck 1 mass flow rate check value iteration history trace: 7.155018E-002,7.155018E-002,7.155018E-002,7.155018E-002,7.155018E-002,7.155018E-002,7.155018E-002,7.155018E-002,7.155018E-002,7.155018E-002,
   **   ~~~   ** Air System Named = CENTRAL SYSTEM did not converge for energy
   **   ~~~   ** Check values should be zero. Most Recent values listed first.
   **   ~~~   ** Demand-to-Supply interface energy check value iteration history trace: 1415.371681,1415.371681,1415.371681,1415.371681,1415.371681,1415.371681,1415.371681,1415.371681,1415.371680,1415.371680,
   **   ~~~   ** Supply-to-demand interface deck 1 energy check value iteration history trace: 2477.765540,2477.765540,2477.765540,2477.765540,2477.765540,2477.765539,2477.765539,2477.765539,2477.765539,2477.765539,
   ** Warning ** SimHVAC: Maximum iterations (20) exceeded for all HVAC loops, at ANNUAL, 05/07 09:45 - 09:49
   **   ~~~   ** The solution for one or more of the Air Loop HVAC systems did not appear to converge
   **   ~~~   ** Air System Named = CENTRAL SYSTEM did not converge for mass flow rate
   **   ~~~   ** Check values should be zero. Most Recent values listed first.
   **   ~~~   ** Demand-to-Supply interface mass flow rate check value iteration history trace: 8.690663E-002,8.690663E-002,8.690663E-002,8.690663E-002,8.690663E-002,8.690663E-002,8.690663E-002,8.690663E-002,8.690663E-002,8.690663E-002,
   **   ~~~   ** Supply-to-demand interface deck 1 mass flow rate check value iteration history trace: 8.690663E-002,8.690663E-002,8.690663E-002,8.690663E-002,8.690663E-002,8.690663E-002,8.690663E-002,8.690663E-002,8.690663E-002,8.690663E-002,
   **   ~~~   ** Air System Named = CENTRAL SYSTEM did not converge for energy
   **   ~~~   ** Check values should be zero. Most Recent values listed first.
   **   ~~~   ** Demand-to-Supply interface energy check value iteration history trace: 1700.155348,1700.155348,1700.155348,1700.155348,1700.155348,1700.155348,1700.155348,1700.155348,1700.155348,1700.155348,
   **   ~~~   ** Supply-to-demand interface deck 1 energy check value iteration history trace: 3015.704169,3015.704169,3015.704169,3015.704169,3015.704169,3015.704169,3015.704169,3015.704168,3015.704168,3015.704168,
   ** Warning ** SimHVAC: Maximum iterations (20) exceeded for all HVAC loops, at ANNUAL, 09/19 19:10 - 19:15
   **   ~~~   ** The solution for one or more of the Air Loop HVAC systems did not appear to converge
   **   ~~~   ** Air System Named = CENTRAL SYSTEM did not converge for mass flow rate
   **   ~~~   ** Check values should be zero. Most Recent values listed first.
   **   ~~~   ** Demand-to-Supply interface mass flow rate check value iteration history trace: 0.184662,0.184662,0.184662,0.184662,0.184662,0.184662,0.184662,0.184662,0.184662,0.184662,
   **   ~~~   ** Supply-to-demand interface deck 1 mass flow rate check value iteration history trace: 0.184662,0.184662,0.184662,0.184662,0.184662,0.184662,0.184662,0.184662,0.184662,0.184662,
   **   ~~~   ** Air System Named = CENTRAL SYSTEM did not converge for energy
   **   ~~~   ** Check values should be zero. Most Recent values listed first.
   **   ~~~   ** Demand-to-Supply interface energy check value iteration history trace: 4446.765134,4446.765134,4446.765135,4446.765135,4446.765135,4446.765136,4446.765136,4446.765136,4446.765136,4446.765137,
   **   ~~~   ** Supply-to-demand interface deck 1 energy check value iteration history trace: 1807.004735,1807.004735,1807.004735,1807.004735,1807.004736,1807.004736,1807.004736,1807.004736,1807.004736,1807.004736,
   ** Warning ** SimHVAC: Maximum iterations (20) exceeded for all HVAC loops, at ANNUAL, 10/02 19:45 - 20:00
   **   ~~~   ** The solution for one or more of the Air Loop HVAC systems did not appear to converge
   **   ~~~   ** Air System Named = CENTRAL SYSTEM did not converge for mass flow rate
   **   ~~~   ** Check values should be zero. Most Recent values listed first.
   **   ~~~   ** Demand-to-Supply interface mass flow rate check value iteration history trace: 6.844176E-002,6.844176E-002,6.844176E-002,6.844176E-002,6.844176E-002,6.844176E-002,6.844176E-002,6.844176E-002,6.844176E-002,6.844176E-002,
   **   ~~~   ** Supply-to-demand interface deck 1 mass flow rate check value iteration history trace: 6.844176E-002,6.844176E-002,6.844176E-002,6.844176E-002,6.844176E-002,6.844176E-002,6.844176E-002,6.844176E-002,6.844176E-002,6.844176E-002,
   **   ~~~   ** Air System Named = CENTRAL SYSTEM did not converge for energy
   **   ~~~   ** Check values should be zero. Most Recent values listed first.
   **   ~~~   ** Demand-to-Supply interface energy check value iteration history trace: 1355.933053,1355.933053,1355.933053,1355.933053,1355.933053,1355.933053,1355.933053,1355.933052,1355.933052,1355.933052,
   **   ~~~   ** Supply-to-demand interface deck 1 energy check value iteration history trace: 2358.492349,2358.492349,2358.492349,2358.492349,2358.492349,2358.492349,2358.492349,2358.492348,2358.492348,2358.492348,
   ** Warning ** SimHVAC: Maximum iterations (20) exceeded for all HVAC loops, at ANNUAL, 12/05 20:45 - 20:52
   **   ~~~   ** The solution for one or more of the Air Loop HVAC systems did not appear to converge
   **   ~~~   ** Air System Named = CENTRAL SYSTEM did not converge for mass flow rate
   **   ~~~   ** Check values should be zero. Most Recent values listed first.
   **   ~~~   ** Demand-to-Supply interface mass flow rate check value iteration history trace: 6.500698E-002,6.500698E-002,6.500698E-002,6.500698E-002,6.500698E-002,6.500698E-002,6.500698E-002,6.500698E-002,6.500698E-002,6.500698E-002,
   **   ~~~   ** Supply-to-demand interface deck 1 mass flow rate check value iteration history trace: 6.500698E-002,6.500698E-002,6.500698E-002,6.500698E-002,6.500698E-002,6.500698E-002,6.500698E-002,6.500698E-002,6.500698E-002,6.500698E-002,
   **   ~~~   ** Air System Named = CENTRAL SYSTEM did not converge for energy
   **   ~~~   ** Check values should be zero. Most Recent values listed first.
   **   ~~~   ** Demand-to-Supply interface energy check value iteration history trace: 1285.656873,1285.656873,1285.656873,1285.656873,1285.656873,1285.656873,1285.656873,1285.656873,1285.656872,1285.656872,
   **   ~~~   ** Supply-to-demand interface deck 1 energy check value iteration history trace: 2308.994260,2308.994260,2308.994260,2308.994260,2308.994260,2308.994260,2308.994260,2308.994260,2308.994259,2308.994259,
   **   ~~~   ** Node named ZONE INLET NODE shows oscillating temperatures across iterations with a repeated value of 35.347951
   **   ~~~   ** Node named ZONE INLET NODE temperature [C] iteration history trace (most recent first): 35.347951,35.347951,35.347951,35.347950,35.347950,35.347950,35.347950,35.347950,35.347949,35.347949,
   ** Warning ** SimHVAC: Maximum iterations (20) exceeded for all HVAC loops, at ANNUAL, 12/08 22:06 - 22:09
   **   ~~~   ** The solution for one or more of the Air Loop HVAC systems did not appear to converge
   **   ~~~   ** Air System Named = CENTRAL SYSTEM did not converge for mass flow rate
   **   ~~~   ** Check values should be zero. Most Recent values listed first.
   **   ~~~   ** Demand-to-Supply interface mass flow rate check value iteration history trace: 0.114653,0.114653,0.114653,0.114653,0.114653,0.114653,0.114653,0.114653,0.114653,0.114653,
   **   ~~~   ** Supply-to-demand interface deck 1 mass flow rate check value iteration history trace: 0.114653,0.114653,0.114653,0.114653,0.114653,0.114653,0.114653,0.114653,0.114653,0.114653,
   **   ~~~   ** Air System Named = CENTRAL SYSTEM did not converge for energy
   **   ~~~   ** Check values should be zero. Most Recent values listed first.
   **   ~~~   ** Demand-to-Supply interface energy check value iteration history trace: 2189.284101,2189.284100,2189.284100,2189.284100,2189.284100,2189.284100,2189.284100,2189.284100,2189.284099,2189.284099,
   **   ~~~   ** Supply-to-demand interface deck 1 energy check value iteration history trace: 3318.233605,3318.233605,3318.233605,3318.233605,3318.233604,3318.233604,3318.233604,3318.233604,3318.233603,3318.233603,
   ************* Simulation Error Summary *************
   ** Warning ** The following Report Variables were requested but not generated -- check.rdd file
   **   ~~~   ** Either the IDF did not contain these elements, the variable name is misspelled,
   **   ~~~   ** or the requested variable is an advanced output which requires Output : Diagnostics, DisplayAdvancedReportVariables;
   ************* Key=*, VarName=BASEBOARD TOTAL HEATING ENERGY, Frequency=
   ************* Key=*, VarName=WATER HEATER NATURALGAS ENERGY, Frequency=
   ************* Key=*, VarName=COOLING COIL TOTAL HEATING ENERGY, Frequency=
   ************* There are 34 unused schedules in input.
   ************* There are 388 unused week schedules in input.
   ************* There are 396 unused day schedules in input.
   ************* Use Output:Diagnostics,DisplayUnusedSchedules; to see them.
   *************
   ************* ===== Recurring Error Summary =====
   ************* The following recurring error messages occurred.
   *************
   *************  ** Warning ** "TOTAL HOT WATER LOAD" - Target water temperature should be less than or equal to the hot water temperature error continues...
   *************  **   ~~~   **   This error occurred 91427 total times;
   *************  **   ~~~   **   during Warmup 0 times;
   *************  **   ~~~   **   during Sizing 0 times.
   *************  **   ~~~   **   Max=11.085024  Min=1.956240E-004
   *************
   *************
   ************* ===== Final Error Summary =====
   ************* The following error categories occurred.  Consider correcting or noting.
   ************* Nominally Unused Constructions
   ************* ..The nominally unused constructions warning is provided to alert you to potential conditions that can cause
   ************* ..extra time during simulation. Each construction is calculated by the algorithm indicated in the HeatBalanceAlgorithm
   ************* ..object. You may remove the constructions indicated (when you use the DisplayExtraWarnings option).
   *************
   ************* EnergyPlus Warmup Error Summary. During Warmup: 1 Warning; 0 Severe Errors.
   ************* EnergyPlus Sizing Error Summary. During Sizing: 4 Warning; 0 Severe Errors.
   ************* EnergyPlus Completed Successfully-- 91458 Warning; 0 Severe Errors; Elapsed Time=00hr 04min 55.56sec
