Program Version,EnergyPlus, Version 22.2.0-c249759bad, YMD=2023.09.01 19:49,
   ************* Beginning Zone Sizing Calculations
   ** Warning ** ProcessScheduleInput: Schedule:Constant="ALWAYS ON DISCRETE", Schedule Type Limits Name="ONOFF" not found -- will not be validated
   ** Warning ** Foundation:Kiva="KIVA FOUNDATION", no Interior Horizontal Insulation Material Name defined
   **   ~~~   ** Interior Horizontal Insulation Depth will not be used.
   ** Warning ** CheckUsedConstructions: There are 15 nominally unused constructions in input.
   **   ~~~   ** Each Unused construction is shown.
   ************* Construction=INTERIOR FLOOR
   ************* Construction=INTERIOR WINDOW
   ************* Construction=EXTERIOR DOOR
   ************* Construction=INTERIOR DOOR
   ************* Construction=GABLE CONSTRUCTION
   ************* Construction=CRAWL_FLOOR
   ************* Construction=INSULATED PIPE
   ************* Construction=PLAIN PIPE
   ************* Construction=TDD PIPE
   ************* Construction=TDD DOME
   ************* Construction=TDD DIFFUSER
   ************* Construction=CRAWL WALL
   ************* Construction=CEILING-FLOOR-LAYER
   ************* Construction=SLAB CONSTRUCTION W FULL R10 INSULATION
   ************* Construction=SLAB CONSTRUCTION W FULL R5 INSULATION
   ** Warning ** GetDXCoils: Coil:Heating:DX:SingleSpeed="DX_HEATING_COIL" curve values
   **   ~~~   ** ... Defrost Energy Input Ratio Function of Temperature Curve Name = DEFROSTEIR output is not equal to 1.0 (+ or - 10%) at rated conditions.
   **   ~~~   ** ... Curve output at rated conditions = 0.152
   ************* Beginning System Sizing Calculations
   ************* Beginning Plant Sizing Calculations
   ** Warning ** SizeDXCoil Coil:Cooling:DX:SingleSpeed DX_COOLING_COIL
   **   ~~~   ** ...Gross Rated Total Cooling Capacity [W] will be limited by the maximum rated volume flow per rated total capacity ratio.
   **   ~~~   ** ...DX coil volume flow rate ( m3/s ) = 0.368878
   **   ~~~   ** ...Requested capacity ( W ) = 5770.657
   **   ~~~   ** ...Requested flow/capacity ratio ( m3/s/W ) = 6.392E-005
   **   ~~~   ** ...Maximum flow/capacity ratio ( m3/s/W ) = 6.041E-005
   **   ~~~   ** ...Adjusted capacity ( W ) = 6106.243
   ** Warning ** Coil:WaterHeating:AirToWaterHeatPump:Wrapped "HEAT PUMP WATER HEATER EVAPORATOR": Rated air volume flow rate per watt of rated total water heating capacity is out of range
   **   ~~~   ** Min Rated Vol Flow Per Watt=[4.027E-005], Rated Vol Flow Per Watt=[1.510E-004], Max Rated Vol Flow Per Watt=[8.056E-005]. See Input-Output Reference Manual for valid range.
   ************* SizeFan: : Potential issue with equipment sizing for Fan:OnOff HEAT PUMP WATER HEATER FAN
   **   ~~~   ** User-Specified Maximum Flow Rate [m3/s] = 0.22653
   **   ~~~   ** differs from Design Size Maximum Flow Rate [m3/s] = 7.55250E-002
   **   ~~~   ** This may, or may not, indicate mismatched component sizes.
   **   ~~~   ** Verify that the value entered is intended and is consistent with other components.
   ** Warning ** Water heater = WATER HEATER TANK:  Recovery Efficiency and Energy Factor could not be calculated during the test for standard ratings
   **   ~~~   ** Setpoint was never recovered and/or heater never turned on
   ** Warning ** Check input. Pump nominal power or motor efficiency is set to 0, for pump=MAINS PRESSURE
   ** Warning ** Output:Meter: invalid Key Name="ELECTRIC_RANGE:INTERIOREQUIPMENT:ELECTRICITY" - not found.
   ** Warning ** Output:Meter: invalid Key Name="ELECTRIC_DRYER:INTERIOREQUIPMENT:ELECTRICITY" - not found.
   ** Warning ** Output:Meter: invalid Key Name="HEATRECOVERY:ELECTRICITY" - not found.
   ** Warning ** Output:Meter: invalid Key Name="HEATING:NATURALGAS" - not found.
   ** Warning ** Output:Meter: invalid Key Name="WATERSYSTEMS:NATURALGAS" - not found.
   ** Warning ** Output:Meter: invalid Key Name="PROPANE:FACILITY" - not found.
   ** Warning ** Output:Meter: invalid Key Name="HEATING:PROPANE" - not found.
   ************* Testing Individual Branch Integrity
   ************* All Branches passed integrity testing
   ************* Testing Individual Supply Air Path Integrity
   ************* All Supply Air Paths passed integrity testing
   ************* Testing Individual Return Air Path Integrity
   ************* All Return Air Paths passed integrity testing
   ************* No node connection errors were found.
   ************* Beginning Simulation
   ** Warning ** AirflowNetwork::Solver::validate_distribution: Heat pump water heater is simulated along with an AirflowNetwork but is not included in the AirflowNetwork.
   ** Warning ** CalcEquipmentFlowRates: "TOTAL HOT WATER LOAD" - Target water temperature is greater than the hot water temperature by (3.98 C)
   **   ~~~   **  Environment=EXTREME_WINTER, at Simulation time=01/18 06:00 - 06:15
   **   ~~~   ** ...target water temperature     = 53.33 C
   **   ~~~   ** ...hot water temperature        = 49.36 C
   **   ~~~   ** ...Target water temperature should be less than or equal to the hot water temperature. Verify temperature setpoints and schedules.
   ** Warning ** SimHVAC: Maximum iterations (20) exceeded for all HVAC loops, at ANNUAL, 01/18 17:00 - 17:15
   **   ~~~   ** The solution for one or more of the Air Loop HVAC systems did not appear to converge
   **   ~~~   ** Air System Named = CENTRAL SYSTEM did not converge for mass flow rate
   **   ~~~   ** Check values should be zero. Most Recent values listed first.
   **   ~~~   ** Demand-to-Supply interface mass flow rate check value iteration history trace: 9.689655E-002,9.689655E-002,9.689655E-002,9.689655E-002,9.689655E-002,9.689655E-002,9.689655E-002,9.689655E-002,9.689655E-002,9.689655E-002,
   **   ~~~   ** Supply-to-demand interface deck 1 mass flow rate check value iteration history trace: 9.689655E-002,9.689655E-002,9.689655E-002,9.689655E-002,9.689655E-002,9.689655E-002,9.689655E-002,9.689655E-002,9.689655E-002,9.689655E-002,
   **   ~~~   ** Air System Named = CENTRAL SYSTEM did not converge for energy
   **   ~~~   ** Check values should be zero. Most Recent values listed first.
   **   ~~~   ** Demand-to-Supply interface energy check value iteration history trace: 1915.911730,1915.911730,1915.911730,1915.911730,1915.911730,1915.911730,1915.911730,1915.911729,1915.911729,1915.911729,
   **   ~~~   ** Supply-to-demand interface deck 1 energy check value iteration history trace: 3008.151560,3008.151560,3008.151559,3008.151559,3008.151559,3008.151559,3008.151559,3008.151559,3008.151558,3008.151558,
   ** Warning ** SimHVAC: Maximum iterations (20) exceeded for all HVAC loops, at ANNUAL, 02/26 17:38 - 17:41
   **   ~~~   ** The solution for one or more of the Air Loop HVAC systems did not appear to converge
   **   ~~~   ** Air System Named = CENTRAL SYSTEM did not converge for mass flow rate
   **   ~~~   ** Check values should be zero. Most Recent values listed first.
   **   ~~~   ** Demand-to-Supply interface mass flow rate check value iteration history trace: 9.735051E-002,9.735051E-002,9.735051E-002,9.735051E-002,9.735051E-002,9.735051E-002,9.735051E-002,9.735051E-002,9.735051E-002,9.735051E-002,
   **   ~~~   ** Supply-to-demand interface deck 1 mass flow rate check value iteration history trace: 9.735051E-002,9.735051E-002,9.735051E-002,9.735051E-002,9.735051E-002,9.735051E-002,9.735051E-002,9.735051E-002,9.735051E-002,9.735051E-002,
   **   ~~~   ** Air System Named = CENTRAL SYSTEM did not converge for energy
   **   ~~~   ** Check values should be zero. Most Recent values listed first.
   **   ~~~   ** Demand-to-Supply interface energy check value iteration history trace: 1929.125050,1929.125050,1929.125050,1929.125050,1929.125050,1929.125050,1929.125050,1929.125050,1929.125049,1929.125049,
   **   ~~~   ** Supply-to-demand interface deck 1 energy check value iteration history trace: 2937.837990,2937.837990,2937.837990,2937.837990,2937.837989,2937.837989,2937.837989,2937.837989,2937.837989,2937.837989,
   ** Warning ** SimHVAC: Maximum iterations (20) exceeded for all HVAC loops, at ANNUAL, 03/06 20:00 - 20:08
   **   ~~~   ** The solution for one or more of the Air Loop HVAC systems did not appear to converge
   **   ~~~   ** Air System Named = CENTRAL SYSTEM did not converge for mass flow rate
   **   ~~~   ** Check values should be zero. Most Recent values listed first.
   **   ~~~   ** Demand-to-Supply interface mass flow rate check value iteration history trace: 5.984455E-002,5.984455E-002,5.984455E-002,5.984455E-002,5.984455E-002,5.984455E-002,5.984455E-002,5.984455E-002,5.984455E-002,5.984455E-002,
   **   ~~~   ** Supply-to-demand interface deck 1 mass flow rate check value iteration history trace: 5.984455E-002,5.984455E-002,5.984455E-002,5.984455E-002,5.984455E-002,5.984455E-002,5.984455E-002,5.984455E-002,5.984455E-002,5.984455E-002,
   **   ~~~   ** Air System Named = CENTRAL SYSTEM did not converge for energy
   **   ~~~   ** Check values should be zero. Most Recent values listed first.
   **   ~~~   ** Demand-to-Supply interface energy check value iteration history trace: 1183.282070,1183.282070,1183.282070,1183.282070,1183.282069,1183.282069,1183.282069,1183.282069,1183.282069,1183.282069,
   **   ~~~   ** Supply-to-demand interface deck 1 energy check value iteration history trace: 2000.847377,2000.847377,2000.847377,2000.847377,2000.847376,2000.847376,2000.847376,2000.847376,2000.847376,2000.847376,
   ** Warning ** SimHVAC: Maximum iterations (20) exceeded for all HVAC loops, at ANNUAL, 03/12 19:15 - 19:30
   **   ~~~   ** The solution for one or more of the Air Loop HVAC systems did not appear to converge
   **   ~~~   ** Air System Named = CENTRAL SYSTEM did not converge for mass flow rate
   **   ~~~   ** Check values should be zero. Most Recent values listed first.
   **   ~~~   ** Demand-to-Supply interface mass flow rate check value iteration history trace: 0.101212,0.101212,0.101212,0.101212,0.101212,0.101212,0.101212,0.101212,0.101212,0.101212,
   **   ~~~   ** Supply-to-demand interface deck 1 mass flow rate check value iteration history trace: 0.101212,0.101212,0.101212,0.101212,0.101212,0.101212,0.101212,0.101212,0.101212,0.101212,
   **   ~~~   ** Air System Named = CENTRAL SYSTEM did not converge for energy
   **   ~~~   ** Check values should be zero. Most Recent values listed first.
   **   ~~~   ** Demand-to-Supply interface energy check value iteration history trace: 1998.818452,1998.818452,1998.818452,1998.818452,1998.818452,1998.818452,1998.818452,1998.818451,1998.818451,1998.818451,
   **   ~~~   ** Supply-to-demand interface deck 1 energy check value iteration history trace: 3040.239102,3040.239102,3040.239102,3040.239102,3040.239101,3040.239101,3040.239101,3040.239101,3040.239101,3040.239100,
   ** Warning ** SimHVAC: Maximum iterations (20) exceeded for all HVAC loops, at ANNUAL, 03/17 10:11 - 10:13
   **   ~~~   ** The solution for one or more of the Air Loop HVAC systems did not appear to converge
   **   ~~~   ** Air System Named = CENTRAL SYSTEM did not converge for mass flow rate
   **   ~~~   ** Check values should be zero. Most Recent values listed first.
   **   ~~~   ** Demand-to-Supply interface mass flow rate check value iteration history trace: 6.953972E-002,6.953972E-002,6.953972E-002,6.953972E-002,6.953972E-002,6.953972E-002,6.953972E-002,6.953972E-002,6.953972E-002,6.953972E-002,
   **   ~~~   ** Supply-to-demand interface deck 1 mass flow rate check value iteration history trace: 6.953972E-002,6.953972E-002,6.953972E-002,6.953972E-002,6.953972E-002,6.953972E-002,6.953972E-002,6.953972E-002,6.953972E-002,6.953972E-002,
   **   ~~~   ** Air System Named = CENTRAL SYSTEM did not converge for energy
   **   ~~~   ** Check values should be zero. Most Recent values listed first.
   **   ~~~   ** Demand-to-Supply interface energy check value iteration history trace: 1371.206424,1371.206424,1371.206424,1371.206423,1371.206423,1371.206423,1371.206423,1371.206423,1371.206423,1371.206423,
   **   ~~~   ** Supply-to-demand interface deck 1 energy check value iteration history trace: 2356.054595,2356.054595,2356.054595,2356.054595,2356.054595,2356.054595,2356.054595,2356.054595,2356.054594,2356.054594,
   ** Warning ** SimHVAC: Maximum iterations (20) exceeded for all HVAC loops, at ANNUAL, 03/19 00:45 - 00:50
   **   ~~~   ** The solution for one or more of the Air Loop HVAC systems did not appear to converge
   **   ~~~   ** Air System Named = CENTRAL SYSTEM did not converge for mass flow rate
   **   ~~~   ** Check values should be zero. Most Recent values listed first.
   **   ~~~   ** Demand-to-Supply interface mass flow rate check value iteration history trace: 9.146935E-002,9.146935E-002,9.146935E-002,9.146935E-002,9.146935E-002,9.146935E-002,9.146935E-002,9.146935E-002,9.146935E-002,9.146935E-002,
   **   ~~~   ** Supply-to-demand interface deck 1 mass flow rate check value iteration history trace: 9.146935E-002,9.146935E-002,9.146935E-002,9.146935E-002,9.146935E-002,9.146935E-002,9.146935E-002,9.146935E-002,9.146935E-002,9.146935E-002,
   **   ~~~   ** Air System Named = CENTRAL SYSTEM did not converge for energy
   **   ~~~   ** Check values should be zero. Most Recent values listed first.
   **   ~~~   ** Demand-to-Supply interface energy check value iteration history trace: 1714.027327,1714.027327,1714.027327,1714.027327,1714.027327,1714.027327,1714.027327,1714.027327,1714.027326,1714.027326,
   **   ~~~   ** Supply-to-demand interface deck 1 energy check value iteration history trace: 2582.026180,2582.026180,2582.026180,2582.026180,2582.026180,2582.026180,2582.026179,2582.026179,2582.026179,2582.026179,
   ** Warning ** SimHVAC: Maximum iterations (20) exceeded for all HVAC loops, at ANNUAL, 03/19 11:35 - 11:40
   **   ~~~   ** The solution for one or more of the Air Loop HVAC systems did not appear to converge
   **   ~~~   ** Air System Named = CENTRAL SYSTEM did not converge for mass flow rate
   **   ~~~   ** Check values should be zero. Most Recent values listed first.
   **   ~~~   ** Demand-to-Supply interface mass flow rate check value iteration history trace: 9.870361E-002,9.870361E-002,9.870361E-002,9.870361E-002,9.870361E-002,9.870361E-002,9.870361E-002,9.870361E-002,9.870361E-002,9.870361E-002,
   **   ~~~   ** Supply-to-demand interface deck 1 mass flow rate check value iteration history trace: 9.870361E-002,9.870361E-002,9.870361E-002,9.870361E-002,9.870361E-002,9.870361E-002,9.870361E-002,9.870361E-002,9.870361E-002,9.870361E-002,
   **   ~~~   ** Air System Named = CENTRAL SYSTEM did not converge for energy
   **   ~~~   ** Check values should be zero. Most Recent values listed first.
   **   ~~~   ** Demand-to-Supply interface energy check value iteration history trace: 1947.791451,1947.791451,1947.791451,1947.791450,1947.791450,1947.791450,1947.791450,1947.791450,1947.791450,1947.791450,
   **   ~~~   ** Supply-to-demand interface deck 1 energy check value iteration history trace: 3069.502444,3069.502444,3069.502443,3069.502443,3069.502443,3069.502443,3069.502443,3069.502442,3069.502442,3069.502442,
   ** Warning ** SimHVAC: Maximum iterations (20) exceeded for all HVAC loops, at ANNUAL, 04/01 17:00 - 17:08
   **   ~~~   ** The solution for one or more of the Air Loop HVAC systems did not appear to converge
   **   ~~~   ** Air System Named = CENTRAL SYSTEM did not converge for mass flow rate
   **   ~~~   ** Check values should be zero. Most Recent values listed first.
   **   ~~~   ** Demand-to-Supply interface mass flow rate check value iteration history trace: 6.834951E-002,6.834951E-002,6.834951E-002,6.834951E-002,6.834951E-002,6.834951E-002,6.834951E-002,6.834951E-002,6.834951E-002,6.834951E-002,
   **   ~~~   ** Supply-to-demand interface deck 1 mass flow rate check value iteration history trace: 6.834951E-002,6.834951E-002,6.834951E-002,6.834951E-002,6.834951E-002,6.834951E-002,6.834951E-002,6.834951E-002,6.834951E-002,6.834951E-002,
   **   ~~~   ** Air System Named = CENTRAL SYSTEM did not converge for energy
   **   ~~~   ** Check values should be zero. Most Recent values listed first.
   **   ~~~   ** Demand-to-Supply interface energy check value iteration history trace: 1354.196459,1354.196459,1354.196459,1354.196458,1354.196458,1354.196458,1354.196458,1354.196458,1354.196458,1354.196458,
   **   ~~~   ** Supply-to-demand interface deck 1 energy check value iteration history trace: 2255.630620,2255.630620,2255.630620,2255.630620,2255.630620,2255.630620,2255.630620,2255.630620,2255.630619,2255.630619,
   ** Warning ** SimHVAC: Maximum iterations (20) exceeded for all HVAC loops, at ANNUAL, 04/16 10:09 - 10:12
   **   ~~~   ** The solution for one or more of the Air Loop HVAC systems did not appear to converge
   **   ~~~   ** Air System Named = CENTRAL SYSTEM did not converge for mass flow rate
   **   ~~~   ** Check values should be zero. Most Recent values listed first.
   **   ~~~   ** Demand-to-Supply interface mass flow rate check value iteration history trace: 8.039906E-002,8.039906E-002,8.039906E-002,8.039906E-002,8.039906E-002,8.039906E-002,8.039906E-002,8.039906E-002,8.039906E-002,8.039906E-002,
   **   ~~~   ** Supply-to-demand interface deck 1 mass flow rate check value iteration history trace: 8.039906E-002,8.039906E-002,8.039906E-002,8.039906E-002,8.039906E-002,8.039906E-002,8.039906E-002,8.039906E-002,8.039906E-002,8.039906E-002,
   **   ~~~   ** Air System Named = CENTRAL SYSTEM did not converge for energy
   **   ~~~   ** Check values should be zero. Most Recent values listed first.
   **   ~~~   ** Demand-to-Supply interface energy check value iteration history trace: 1581.701099,1581.701099,1581.701099,1581.701098,1581.701098,1581.701098,1581.701098,1581.701098,1581.701098,1581.701098,
   **   ~~~   ** Supply-to-demand interface deck 1 energy check value iteration history trace: 2769.846112,2769.846112,2769.846112,2769.846112,2769.846112,2769.846111,2769.846111,2769.846111,2769.846111,2769.846111,
   ** Warning ** SimHVAC: Maximum iterations (20) exceeded for all HVAC loops, at ANNUAL, 04/18 07:30 - 07:45
   **   ~~~   ** The solution for one or more of the Air Loop HVAC systems did not appear to converge
   **   ~~~   ** Air System Named = CENTRAL SYSTEM did not converge for mass flow rate
   **   ~~~   ** Check values should be zero. Most Recent values listed first.
   **   ~~~   ** Demand-to-Supply interface mass flow rate check value iteration history trace: 7.059374E-002,7.059374E-002,7.059374E-002,7.059374E-002,7.059374E-002,7.059374E-002,7.059374E-002,7.059374E-002,7.059374E-002,7.059374E-002,
   **   ~~~   ** Supply-to-demand interface deck 1 mass flow rate check value iteration history trace: 7.059374E-002,7.059374E-002,7.059374E-002,7.059374E-002,7.059374E-002,7.059374E-002,7.059374E-002,7.059374E-002,7.059374E-002,7.059374E-002,
   **   ~~~   ** Air System Named = CENTRAL SYSTEM did not converge for energy
   **   ~~~   ** Check values should be zero. Most Recent values listed first.
   **   ~~~   ** Demand-to-Supply interface energy check value iteration history trace: 1397.629914,1397.629914,1397.629914,1397.629914,1397.629914,1397.629914,1397.629914,1397.629914,1397.629914,1397.629914,
   **   ~~~   ** Supply-to-demand interface deck 1 energy check value iteration history trace: 2453.069909,2453.069909,2453.069909,2453.069909,2453.069909,2453.069909,2453.069909,2453.069909,2453.069909,2453.069909,
   ** Warning ** SimHVAC: Maximum iterations (20) exceeded for all HVAC loops, at ANNUAL, 04/21 18:00 - 18:08
   **   ~~~   ** The solution for one or more of the Air Loop HVAC systems did not appear to converge
   **   ~~~   ** Air System Named = CENTRAL SYSTEM did not converge for mass flow rate
   **   ~~~   ** Check values should be zero. Most Recent values listed first.
   **   ~~~   ** Demand-to-Supply interface mass flow rate check value iteration history trace: 6.446285E-002,6.446285E-002,6.446285E-002,6.446285E-002,6.446285E-002,6.446285E-002,6.446285E-002,6.446285E-002,6.446285E-002,6.446285E-002,
   **   ~~~   ** Supply-to-demand interface deck 1 mass flow rate check value iteration history trace: 6.446285E-002,6.446285E-002,6.446285E-002,6.446285E-002,6.446285E-002,6.446285E-002,6.446285E-002,6.446285E-002,6.446285E-002,6.446285E-002,
   **   ~~~   ** Air System Named = CENTRAL SYSTEM did not converge for energy
   **   ~~~   ** Check values should be zero. Most Recent values listed first.
   **   ~~~   ** Demand-to-Supply interface energy check value iteration history trace: 1275.570754,1275.570754,1275.570754,1275.570753,1275.570753,1275.570753,1275.570753,1275.570753,1275.570753,1275.570753,
   **   ~~~   ** Supply-to-demand interface deck 1 energy check value iteration history trace: 2177.529048,2177.529048,2177.529048,2177.529048,2177.529047,2177.529047,2177.529047,2177.529047,2177.529047,2177.529047,
   ** Warning ** SimHVAC: Maximum iterations (20) exceeded for all HVAC loops, at ANNUAL, 04/22 06:45 - 07:00
   **   ~~~   ** The solution for one or more of the Air Loop HVAC systems did not appear to converge
   **   ~~~   ** Air System Named = CENTRAL SYSTEM did not converge for mass flow rate
   **   ~~~   ** Check values should be zero. Most Recent values listed first.
   **   ~~~   ** Demand-to-Supply interface mass flow rate check value iteration history trace: 1.540602E-002,1.540602E-002,1.540602E-002,1.540602E-002,1.540602E-002,1.540602E-002,1.540602E-002,1.540602E-002,1.540602E-002,1.540602E-002,
   **   ~~~   ** Supply-to-demand interface deck 1 mass flow rate check value iteration history trace: 1.540602E-002,1.540602E-002,1.540602E-002,1.540602E-002,1.540602E-002,1.540602E-002,1.540602E-002,1.540602E-002,1.540602E-002,1.540602E-002,
   **   ~~~   ** Air System Named = CENTRAL SYSTEM did not converge for energy
   **   ~~~   ** Check values should be zero. Most Recent values listed first.
   **   ~~~   ** Demand-to-Supply interface energy check value iteration history trace: 305.295593,305.295593,305.295593,305.295593,305.295593,305.295593,305.295593,305.295593,305.295593,305.295593,
   **   ~~~   ** Supply-to-demand interface deck 1 energy check value iteration history trace: 525.981797,525.981797,525.981797,525.981797,525.981797,525.981797,525.981797,525.981797,525.981797,525.981797,
   ** Warning ** SimHVAC: Maximum iterations (20) exceeded for all HVAC loops, at ANNUAL, 05/06 16:30 - 16:45
   **   ~~~   ** The solution for one or more of the Air Loop HVAC systems did not appear to converge
   **   ~~~   ** Air System Named = CENTRAL SYSTEM did not converge for mass flow rate
   **   ~~~   ** Check values should be zero. Most Recent values listed first.
   **   ~~~   ** Demand-to-Supply interface mass flow rate check value iteration history trace: 5.819597E-002,5.819597E-002,5.819597E-002,5.819597E-002,5.819597E-002,5.819597E-002,5.819597E-002,5.819597E-002,5.819597E-002,5.819597E-002,
   **   ~~~   ** Supply-to-demand interface deck 1 mass flow rate check value iteration history trace: 5.819597E-002,5.819597E-002,5.819597E-002,5.819597E-002,5.819597E-002,5.819597E-002,5.819597E-002,5.819597E-002,5.819597E-002,5.819597E-002,
   **   ~~~   ** Air System Named = CENTRAL SYSTEM did not converge for energy
   **   ~~~   ** Check values should be zero. Most Recent values listed first.
   **   ~~~   ** Demand-to-Supply interface energy check value iteration history trace: 1132.727301,1132.727301,1132.727301,1132.727301,1132.727300,1132.727300,1132.727300,1132.727300,1132.727300,1132.727300,
   **   ~~~   ** Supply-to-demand interface deck 1 energy check value iteration history trace: 1989.796482,1989.796482,1989.796482,1989.796482,1989.796482,1989.796482,1989.796482,1989.796482,1989.796482,1989.796481,
   ** Warning ** SimHVAC: Maximum iterations (20) exceeded for all HVAC loops, at ANNUAL, 06/20 00:00 - 00:15
   **   ~~~   ** The solution for one or more of the Air Loop HVAC systems did not appear to converge
   **   ~~~   ** Air System Named = CENTRAL SYSTEM did not converge for mass flow rate
   **   ~~~   ** Check values should be zero. Most Recent values listed first.
   **   ~~~   ** Demand-to-Supply interface mass flow rate check value iteration history trace: 0.106219,0.106219,0.106219,0.106219,0.106219,0.106219,0.106219,0.106219,0.106219,0.106219,
   **   ~~~   ** Supply-to-demand interface deck 1 mass flow rate check value iteration history trace: 0.106219,0.106219,0.106219,0.106219,0.106219,0.106219,0.106219,0.106219,0.106219,0.106219,
   **   ~~~   ** Air System Named = CENTRAL SYSTEM did not converge for energy
   **   ~~~   ** Check values should be zero. Most Recent values listed first.
   **   ~~~   ** Demand-to-Supply interface energy check value iteration history trace: 2680.239556,2680.239556,2680.239557,2680.239558,2680.239559,2680.239559,2680.239560,2680.239561,2680.239562,2680.239562,
   **   ~~~   ** Supply-to-demand interface deck 1 energy check value iteration history trace: 1325.822065,1325.822066,1325.822066,1325.822066,1325.822067,1325.822067,1325.822067,1325.822068,1325.822068,1325.822069,
   ************* Simulation Error Summary *************
   ** Warning ** The following Report Variables were requested but not generated -- check.rdd file
   **   ~~~   ** Either the IDF did not contain these elements, the variable name is misspelled,
   **   ~~~   ** or the requested variable is an advanced output which requires Output : Diagnostics, DisplayAdvancedReportVariables;
   ************* Key=*, VarName=BASEBOARD TOTAL HEATING ENERGY, Frequency=
   ************* Key=*, VarName=WATER HEATER NATURALGAS ENERGY, Frequency=
   ************* Key=*, VarName=COOLING COIL TOTAL HEATING ENERGY, Frequency=
   ************* There are 34 unused schedules in input.
   ************* There are 388 unused week schedules in input.
   ************* There are 396 unused day schedules in input.
   ************* Use Output:Diagnostics,DisplayUnusedSchedules; to see them.
   *************
   ************* ===== Recurring Error Summary =====
   ************* The following recurring error messages occurred.
   *************
   *************  ** Warning ** "TOTAL HOT WATER LOAD" - Target water temperature should be less than or equal to the hot water temperature error continues...
   *************  **   ~~~   **   This error occurred 137059 total times;
   *************  **   ~~~   **   during Warmup 0 times;
   *************  **   ~~~   **   during Sizing 0 times.
   *************  **   ~~~   **   Max=13.916356  Min=3.705839E-004
   *************
   *************  ** Warning ** SimHVAC: Exceeding Maximum iterations for all HVAC loops, during ANNUAL continues
   *************  **   ~~~   **   This error occurred 14 total times;
   *************  **   ~~~   **   during Warmup 0 times;
   *************  **   ~~~   **   during Sizing 0 times.
   *************
   *************
   ************* ===== Final Error Summary =====
   ************* The following error categories occurred.  Consider correcting or noting.
   ************* Nominally Unused Constructions
   ************* ..The nominally unused constructions warning is provided to alert you to potential conditions that can cause
   ************* ..extra time during simulation. Each construction is calculated by the algorithm indicated in the HeatBalanceAlgorithm
   ************* ..object. You may remove the constructions indicated (when you use the DisplayExtraWarnings option).
   *************
   ************* EnergyPlus Warmup Error Summary. During Warmup: 1 Warning; 0 Severe Errors.
   ************* EnergyPlus Sizing Error Summary. During Sizing: 4 Warning; 0 Severe Errors.
   ************* EnergyPlus Completed Successfully-- 137105 Warning; 0 Severe Errors; Elapsed Time=00hr 01min 37.38sec
