Program Version,EnergyPlus, Version 22.2.0-c249759bad, YMD=2023.09.01 19:48,
   ************* Beginning Zone Sizing Calculations
   ** Warning ** ProcessScheduleInput: Schedule:Constant="ALWAYS ON DISCRETE", Schedule Type Limits Name="ONOFF" not found -- will not be validated
   ** Warning ** Foundation:Kiva="KIVA FOUNDATION", no Interior Horizontal Insulation Material Name defined
   **   ~~~   ** Interior Horizontal Insulation Depth will not be used.
   ** Warning ** CheckUsedConstructions: There are 15 nominally unused constructions in input.
   **   ~~~   ** Each Unused construction is shown.
   ************* Construction=INTERIOR FLOOR
   ************* Construction=INTERIOR WINDOW
   ************* Construction=EXTERIOR DOOR
   ************* Construction=INTERIOR DOOR
   ************* Construction=GABLE CONSTRUCTION
   ************* Construction=CRAWL_FLOOR
   ************* Construction=INSULATED PIPE
   ************* Construction=PLAIN PIPE
   ************* Construction=TDD PIPE
   ************* Construction=TDD DOME
   ************* Construction=TDD DIFFUSER
   ************* Construction=CRAWL WALL
   ************* Construction=CEILING-FLOOR-LAYER
   ************* Construction=SLAB CONSTRUCTION W FULL R10 INSULATION
   ************* Construction=SLAB CONSTRUCTION W FULL R5 INSULATION
   ** Warning ** GetDXCoils: Coil:Heating:DX:SingleSpeed="DX_HEATING_COIL" curve values
   **   ~~~   ** ... Defrost Energy Input Ratio Function of Temperature Curve Name = DEFROSTEIR output is not equal to 1.0 (+ or - 10%) at rated conditions.
   **   ~~~   ** ... Curve output at rated conditions = 0.152
   ************* Beginning System Sizing Calculations
   ************* Beginning Plant Sizing Calculations
   ** Warning ** SizeDXCoil Coil:Cooling:DX:SingleSpeed DX_COOLING_COIL
   **   ~~~   ** ...Gross Rated Total Cooling Capacity [W] will be limited by the maximum rated volume flow per rated total capacity ratio.
   **   ~~~   ** ...DX coil volume flow rate ( m3/s ) = 0.438521
   **   ~~~   ** ...Requested capacity ( W ) = 7065.047
   **   ~~~   ** ...Requested flow/capacity ratio ( m3/s/W ) = 6.206E-005
   **   ~~~   ** ...Maximum flow/capacity ratio ( m3/s/W ) = 6.041E-005
   **   ~~~   ** ...Adjusted capacity ( W ) = 7259.085
   ** Warning ** Coil:WaterHeating:AirToWaterHeatPump:Wrapped "HEAT PUMP WATER HEATER EVAPORATOR": Rated air volume flow rate per watt of rated total water heating capacity is out of range
   **   ~~~   ** Min Rated Vol Flow Per Watt=[4.027E-005], Rated Vol Flow Per Watt=[1.510E-004], Max Rated Vol Flow Per Watt=[8.056E-005]. See Input-Output Reference Manual for valid range.
   ************* SizeFan: : Potential issue with equipment sizing for Fan:OnOff HEAT PUMP WATER HEATER FAN
   **   ~~~   ** User-Specified Maximum Flow Rate [m3/s] = 0.22653
   **   ~~~   ** differs from Design Size Maximum Flow Rate [m3/s] = 7.55250E-002
   **   ~~~   ** This may, or may not, indicate mismatched component sizes.
   **   ~~~   ** Verify that the value entered is intended and is consistent with other components.
   ** Warning ** Water heater = WATER HEATER TANK:  Recovery Efficiency and Energy Factor could not be calculated during the test for standard ratings
   **   ~~~   ** Setpoint was never recovered and/or heater never turned on
   ** Warning ** Check input. Pump nominal power or motor efficiency is set to 0, for pump=MAINS PRESSURE
   ** Warning ** Output:Meter: invalid Key Name="ELECTRIC_RANGE:INTERIOREQUIPMENT:ELECTRICITY" - not found.
   ** Warning ** Output:Meter: invalid Key Name="ELECTRIC_DRYER:INTERIOREQUIPMENT:ELECTRICITY" - not found.
   ** Warning ** Output:Meter: invalid Key Name="HEATRECOVERY:ELECTRICITY" - not found.
   ** Warning ** Output:Meter: invalid Key Name="HEATING:NATURALGAS" - not found.
   ** Warning ** Output:Meter: invalid Key Name="WATERSYSTEMS:NATURALGAS" - not found.
   ** Warning ** Output:Meter: invalid Key Name="PROPANE:FACILITY" - not found.
   ** Warning ** Output:Meter: invalid Key Name="HEATING:PROPANE" - not found.
   ************* Testing Individual Branch Integrity
   ************* All Branches passed integrity testing
   ************* Testing Individual Supply Air Path Integrity
   ************* All Supply Air Paths passed integrity testing
   ************* Testing Individual Return Air Path Integrity
   ************* All Return Air Paths passed integrity testing
   ************* No node connection errors were found.
   ************* Beginning Simulation
   ** Warning ** AirflowNetwork::Solver::validate_distribution: Heat pump water heater is simulated along with an AirflowNetwork but is not included in the AirflowNetwork.
   ** Warning ** CalcEquipmentFlowRates: "TOTAL HOT WATER LOAD" - Target water temperature is greater than the hot water temperature by (4.58 C)
   **   ~~~   **  Environment=EXTREME_WINTER, at Simulation time=12/08 06:00 - 06:15
   **   ~~~   ** ...target water temperature     = 53.33 C
   **   ~~~   ** ...hot water temperature        = 48.76 C
   **   ~~~   ** ...Target water temperature should be less than or equal to the hot water temperature. Verify temperature setpoints and schedules.
   ** Warning ** SimHVAC: Maximum iterations (20) exceeded for all HVAC loops, at EXTREME_WINTER, 12/11 19:53 - 20:00
   **   ~~~   ** The solution for one or more of the Air Loop HVAC systems did not appear to converge
   **   ~~~   ** Air System Named = CENTRAL SYSTEM did not converge for mass flow rate
   **   ~~~   ** Check values should be zero. Most Recent values listed first.
   **   ~~~   ** Demand-to-Supply interface mass flow rate check value iteration history trace: 0.103920,0.103920,0.103920,0.103920,0.103920,0.103920,0.103920,0.103920,0.103920,0.103920,
   **   ~~~   ** Supply-to-demand interface deck 1 mass flow rate check value iteration history trace: 0.103920,0.103920,0.103920,0.103920,0.103920,0.103920,0.103920,0.103920,0.103920,0.103920,
   **   ~~~   ** Air System Named = CENTRAL SYSTEM did not converge for energy
   **   ~~~   ** Check values should be zero. Most Recent values listed first.
   **   ~~~   ** Demand-to-Supply interface energy check value iteration history trace: 2038.780776,2038.780776,2038.780776,2038.780776,2038.780776,2038.780776,2038.780776,2038.780775,2038.780775,2038.780775,
   **   ~~~   ** Supply-to-demand interface deck 1 energy check value iteration history trace: 3010.457051,3010.457050,3010.457050,3010.457050,3010.457050,3010.457050,3010.457049,3010.457049,3010.457049,3010.457049,
   ** Warning ** SimHVAC: Maximum iterations (20) exceeded for all HVAC loops, at ANNUAL, 01/07 10:45 - 11:00
   **   ~~~   ** The solution for one or more of the Air Loop HVAC systems did not appear to converge
   **   ~~~   ** Air System Named = CENTRAL SYSTEM did not converge for mass flow rate
   **   ~~~   ** Check values should be zero. Most Recent values listed first.
   **   ~~~   ** Demand-to-Supply interface mass flow rate check value iteration history trace: 5.923852E-002,5.923852E-002,5.923852E-002,5.923852E-002,5.923852E-002,5.923852E-002,5.923852E-002,5.923852E-002,5.923852E-002,5.923852E-002,
   **   ~~~   ** Supply-to-demand interface deck 1 mass flow rate check value iteration history trace: 5.923852E-002,5.923852E-002,5.923852E-002,5.923852E-002,5.923852E-002,5.923852E-002,5.923852E-002,5.923852E-002,5.923852E-002,5.923852E-002,
   **   ~~~   ** Air System Named = CENTRAL SYSTEM did not converge for energy
   **   ~~~   ** Check values should be zero. Most Recent values listed first.
   **   ~~~   ** Demand-to-Supply interface energy check value iteration history trace: 1173.890995,1173.890995,1173.890995,1173.890995,1173.890995,1173.890995,1173.890995,1173.890995,1173.890995,1173.890995,
   **   ~~~   ** Supply-to-demand interface deck 1 energy check value iteration history trace: 2044.495843,2044.495842,2044.495842,2044.495842,2044.495842,2044.495842,2044.495842,2044.495842,2044.495842,2044.495842,
   ** Warning ** SimHVAC: Maximum iterations (20) exceeded for all HVAC loops, at ANNUAL, 01/09 08:00 - 08:15
   **   ~~~   ** The solution for one or more of the Air Loop HVAC systems did not appear to converge
   **   ~~~   ** Air System Named = CENTRAL SYSTEM did not converge for mass flow rate
   **   ~~~   ** Check values should be zero. Most Recent values listed first.
   **   ~~~   ** Demand-to-Supply interface mass flow rate check value iteration history trace: 5.723434E-002,5.723434E-002,5.723434E-002,5.723434E-002,5.723434E-002,5.723434E-002,5.723434E-002,5.723434E-002,5.723434E-002,5.723434E-002,
   **   ~~~   ** Supply-to-demand interface deck 1 mass flow rate check value iteration history trace: 5.723434E-002,5.723434E-002,5.723434E-002,5.723434E-002,5.723434E-002,5.723434E-002,5.723434E-002,5.723434E-002,5.723434E-002,5.723434E-002,
   **   ~~~   ** Air System Named = CENTRAL SYSTEM did not converge for energy
   **   ~~~   ** Check values should be zero. Most Recent values listed first.
   **   ~~~   ** Demand-to-Supply interface energy check value iteration history trace: 1130.362897,1130.362897,1130.362897,1130.362897,1130.362897,1130.362897,1130.362897,1130.362897,1130.362897,1130.362897,
   **   ~~~   ** Supply-to-demand interface deck 1 energy check value iteration history trace: 2023.338905,2023.338905,2023.338905,2023.338905,2023.338905,2023.338905,2023.338905,2023.338905,2023.338904,2023.338904,
   ** Warning ** SimHVAC: Maximum iterations (20) exceeded for all HVAC loops, at ANNUAL, 01/09 11:00 - 11:15
   **   ~~~   ** The solution for one or more of the Air Loop HVAC systems did not appear to converge
   **   ~~~   ** Air System Named = CENTRAL SYSTEM did not converge for mass flow rate
   **   ~~~   ** Check values should be zero. Most Recent values listed first.
   **   ~~~   ** Demand-to-Supply interface mass flow rate check value iteration history trace: 1.207372E-002,1.207372E-002,1.207372E-002,1.207372E-002,1.207372E-002,1.207372E-002,1.207372E-002,1.207372E-002,1.207372E-002,1.207372E-002,
   **   ~~~   ** Supply-to-demand interface deck 1 mass flow rate check value iteration history trace: 1.207372E-002,1.207372E-002,1.207372E-002,1.207372E-002,1.207372E-002,1.207372E-002,1.207372E-002,1.207372E-002,1.207372E-002,1.207372E-002,
   **   ~~~   ** Air System Named = CENTRAL SYSTEM did not converge for energy
   **   ~~~   ** Check values should be zero. Most Recent values listed first.
   **   ~~~   ** Demand-to-Supply interface energy check value iteration history trace: 236.525753,236.525753,236.525753,236.525753,236.525753,236.525753,236.525753,236.525753,236.525753,236.525753,
   **   ~~~   ** Supply-to-demand interface deck 1 energy check value iteration history trace: 434.324102,434.324102,434.324102,434.324102,434.324102,434.324102,434.324102,434.324102,434.324102,434.324102,
   ** Warning ** SimHVAC: Maximum iterations (20) exceeded for all HVAC loops, at ANNUAL, 01/26 08:30 - 08:45
   **   ~~~   ** The solution for one or more of the Air Loop HVAC systems did not appear to converge
   **   ~~~   ** Air System Named = CENTRAL SYSTEM did not converge for mass flow rate
   **   ~~~   ** Check values should be zero. Most Recent values listed first.
   **   ~~~   ** Demand-to-Supply interface mass flow rate check value iteration history trace: 4.783410E-002,4.783410E-002,4.783410E-002,4.783410E-002,4.783410E-002,4.783410E-002,4.783410E-002,4.783410E-002,4.783410E-002,4.783410E-002,
   **   ~~~   ** Supply-to-demand interface deck 1 mass flow rate check value iteration history trace: 4.783410E-002,4.783410E-002,4.783410E-002,4.783410E-002,4.783410E-002,4.783410E-002,4.783410E-002,4.783410E-002,4.783410E-002,4.783410E-002,
   **   ~~~   ** Air System Named = CENTRAL SYSTEM did not converge for energy
   **   ~~~   ** Check values should be zero. Most Recent values listed first.
   **   ~~~   ** Demand-to-Supply interface energy check value iteration history trace: 947.037071,947.037071,947.037071,947.037071,947.037071,947.037071,947.037071,947.037071,947.037071,947.037071,
   **   ~~~   ** Supply-to-demand interface deck 1 energy check value iteration history trace: 1667.811179,1667.811179,1667.811179,1667.811179,1667.811179,1667.811179,1667.811179,1667.811179,1667.811178,1667.811178,
   ** Warning ** SimHVAC: Maximum iterations (20) exceeded for all HVAC loops, at ANNUAL, 02/20 08:30 - 08:45
   **   ~~~   ** The solution for one or more of the Air Loop HVAC systems did not appear to converge
   **   ~~~   ** Air System Named = CENTRAL SYSTEM did not converge for mass flow rate
   **   ~~~   ** Check values should be zero. Most Recent values listed first.
   **   ~~~   ** Demand-to-Supply interface mass flow rate check value iteration history trace: 6.707940E-002,6.707940E-002,6.707940E-002,6.707940E-002,6.707940E-002,6.707940E-002,6.707940E-002,6.707940E-002,6.707940E-002,6.707940E-002,
   **   ~~~   ** Supply-to-demand interface deck 1 mass flow rate check value iteration history trace: 6.707940E-002,6.707940E-002,6.707940E-002,6.707940E-002,6.707940E-002,6.707940E-002,6.707940E-002,6.707940E-002,6.707940E-002,6.707940E-002,
   **   ~~~   ** Air System Named = CENTRAL SYSTEM did not converge for energy
   **   ~~~   ** Check values should be zero. Most Recent values listed first.
   **   ~~~   ** Demand-to-Supply interface energy check value iteration history trace: 1321.086829,1321.086829,1321.086829,1321.086829,1321.086829,1321.086829,1321.086829,1321.086829,1321.086829,1321.086829,
   **   ~~~   ** Supply-to-demand interface deck 1 energy check value iteration history trace: 2351.349218,2351.349218,2351.349218,2351.349218,2351.349218,2351.349218,2351.349218,2351.349218,2351.349217,2351.349217,
   ** Warning ** SimHVAC: Maximum iterations (20) exceeded for all HVAC loops, at ANNUAL, 02/22 18:15 - 18:22
   **   ~~~   ** The solution for one or more of the Air Loop HVAC systems did not appear to converge
   **   ~~~   ** Air System Named = CENTRAL SYSTEM did not converge for mass flow rate
   **   ~~~   ** Check values should be zero. Most Recent values listed first.
   **   ~~~   ** Demand-to-Supply interface mass flow rate check value iteration history trace: 4.530056E-002,4.530056E-002,4.530056E-002,4.530056E-002,4.530056E-002,4.530056E-002,4.530055E-002,4.530055E-002,4.530055E-002,4.530055E-002,
   **   ~~~   ** Supply-to-demand interface deck 1 mass flow rate check value iteration history trace: 4.530056E-002,4.530056E-002,4.530056E-002,4.530056E-002,4.530056E-002,4.530056E-002,4.530055E-002,4.530055E-002,4.530055E-002,4.530055E-002,
   **   ~~~   ** Air System Named = CENTRAL SYSTEM did not converge for energy
   **   ~~~   ** Check values should be zero. Most Recent values listed first.
   **   ~~~   ** Demand-to-Supply interface energy check value iteration history trace: 894.716043,894.716043,894.716043,894.716043,894.716043,894.716043,894.716043,894.716043,894.716043,894.716043,
   **   ~~~   ** Supply-to-demand interface deck 1 energy check value iteration history trace: 1524.897166,1524.897166,1524.897166,1524.897166,1524.897166,1524.897165,1524.897165,1524.897165,1524.897165,1524.897165,
   ** Warning ** SimHVAC: Maximum iterations (20) exceeded for all HVAC loops, at ANNUAL, 02/25 09:45 - 09:50
   **   ~~~   ** The solution for one or more of the Air Loop HVAC systems did not appear to converge
   **   ~~~   ** Air System Named = CENTRAL SYSTEM did not converge for mass flow rate
   **   ~~~   ** Check values should be zero. Most Recent values listed first.
   **   ~~~   ** Demand-to-Supply interface mass flow rate check value iteration history trace: 5.894302E-002,5.894302E-002,5.894302E-002,5.894302E-002,5.894302E-002,5.894302E-002,5.894302E-002,5.894302E-002,5.894302E-002,5.894302E-002,
   **   ~~~   ** Supply-to-demand interface deck 1 mass flow rate check value iteration history trace: 5.894302E-002,5.894302E-002,5.894302E-002,5.894302E-002,5.894302E-002,5.894302E-002,5.894302E-002,5.894302E-002,5.894302E-002,5.894302E-002,
   **   ~~~   ** Air System Named = CENTRAL SYSTEM did not converge for energy
   **   ~~~   ** Check values should be zero. Most Recent values listed first.
   **   ~~~   ** Demand-to-Supply interface energy check value iteration history trace: 1168.049951,1168.049951,1168.049951,1168.049951,1168.049951,1168.049951,1168.049951,1168.049951,1168.049951,1168.049951,
   **   ~~~   ** Supply-to-demand interface deck 1 energy check value iteration history trace: 2067.596647,2067.596647,2067.596647,2067.596647,2067.596647,2067.596647,2067.596647,2067.596647,2067.596647,2067.596646,
   ** Warning ** SimHVAC: Maximum iterations (20) exceeded for all HVAC loops, at ANNUAL, 02/26 20:00 - 20:15
   **   ~~~   ** The solution for one or more of the Air Loop HVAC systems did not appear to converge
   **   ~~~   ** Air System Named = CENTRAL SYSTEM did not converge for mass flow rate
   **   ~~~   ** Check values should be zero. Most Recent values listed first.
   **   ~~~   ** Demand-to-Supply interface mass flow rate check value iteration history trace: 2.084882E-002,2.084882E-002,2.084882E-002,2.084882E-002,2.084882E-002,2.084882E-002,2.084882E-002,2.084882E-002,2.084882E-002,2.084882E-002,
   **   ~~~   ** Supply-to-demand interface deck 1 mass flow rate check value iteration history trace: 2.084882E-002,2.084882E-002,2.084882E-002,2.084882E-002,2.084882E-002,2.084882E-002,2.084882E-002,2.084882E-002,2.084882E-002,2.084882E-002,
   **   ~~~   ** Air System Named = CENTRAL SYSTEM did not converge for energy
   **   ~~~   ** Check values should be zero. Most Recent values listed first.
   **   ~~~   ** Demand-to-Supply interface energy check value iteration history trace: 412.436967,412.436967,412.436967,412.436967,412.436967,412.436967,412.436967,412.436967,412.436967,412.436967,
   **   ~~~   ** Supply-to-demand interface deck 1 energy check value iteration history trace: 628.321433,628.321433,628.321433,628.321432,628.321432,628.321432,628.321432,628.321432,628.321432,628.321432,
   ** Warning ** SimHVAC: Maximum iterations (20) exceeded for all HVAC loops, at ANNUAL, 03/10 07:45 - 07:50
   **   ~~~   ** The solution for one or more of the Air Loop HVAC systems did not appear to converge
   **   ~~~   ** Air System Named = CENTRAL SYSTEM did not converge for mass flow rate
   **   ~~~   ** Check values should be zero. Most Recent values listed first.
   **   ~~~   ** Demand-to-Supply interface mass flow rate check value iteration history trace: 7.852766E-002,7.852766E-002,7.852766E-002,7.852766E-002,7.852766E-002,7.852766E-002,7.852766E-002,7.852766E-002,7.852766E-002,7.852766E-002,
   **   ~~~   ** Supply-to-demand interface deck 1 mass flow rate check value iteration history trace: 7.852766E-002,7.852766E-002,7.852766E-002,7.852766E-002,7.852766E-002,7.852766E-002,7.852766E-002,7.852766E-002,7.852766E-002,7.852766E-002,
   **   ~~~   ** Air System Named = CENTRAL SYSTEM did not converge for energy
   **   ~~~   ** Check values should be zero. Most Recent values listed first.
   **   ~~~   ** Demand-to-Supply interface energy check value iteration history trace: 1555.899074,1555.899074,1555.899074,1555.899074,1555.899074,1555.899073,1555.899073,1555.899073,1555.899073,1555.899073,
   **   ~~~   ** Supply-to-demand interface deck 1 energy check value iteration history trace: 2621.542790,2621.542790,2621.542790,2621.542790,2621.542790,2621.542789,2621.542789,2621.542789,2621.542789,2621.542789,
   ** Warning ** SimHVAC: Maximum iterations (20) exceeded for all HVAC loops, at ANNUAL, 03/16 07:34 - 07:38
   **   ~~~   ** The solution for one or more of the Air Loop HVAC systems did not appear to converge
   **   ~~~   ** Air System Named = CENTRAL SYSTEM did not converge for mass flow rate
   **   ~~~   ** Check values should be zero. Most Recent values listed first.
   **   ~~~   ** Demand-to-Supply interface mass flow rate check value iteration history trace: 6.867421E-002,6.867421E-002,6.867421E-002,6.867421E-002,6.867421E-002,6.867421E-002,6.867421E-002,6.867421E-002,6.867421E-002,6.867421E-002,
   **   ~~~   ** Supply-to-demand interface deck 1 mass flow rate check value iteration history trace: 6.867421E-002,6.867421E-002,6.867421E-002,6.867421E-002,6.867421E-002,6.867421E-002,6.867421E-002,6.867421E-002,6.867421E-002,6.867421E-002,
   **   ~~~   ** Air System Named = CENTRAL SYSTEM did not converge for energy
   **   ~~~   ** Check values should be zero. Most Recent values listed first.
   **   ~~~   ** Demand-to-Supply interface energy check value iteration history trace: 1360.879139,1360.879139,1360.879139,1360.879139,1360.879139,1360.879139,1360.879139,1360.879139,1360.879139,1360.879139,
   **   ~~~   ** Supply-to-demand interface deck 1 energy check value iteration history trace: 2298.164510,2298.164509,2298.164509,2298.164509,2298.164509,2298.164509,2298.164509,2298.164509,2298.164509,2298.164508,
   ** Warning ** SimHVAC: Maximum iterations (20) exceeded for all HVAC loops, at ANNUAL, 04/10 07:57 - 07:59
   **   ~~~   ** The solution for one or more of the Air Loop HVAC systems did not appear to converge
   **   ~~~   ** Air System Named = CENTRAL SYSTEM did not converge for mass flow rate
   **   ~~~   ** Check values should be zero. Most Recent values listed first.
   **   ~~~   ** Demand-to-Supply interface mass flow rate check value iteration history trace: 0.370533,0.370533,0.370533,0.370533,0.370533,0.370533,0.370533,0.370533,0.370533,0.370533,
   **   ~~~   ** Supply-to-demand interface deck 1 mass flow rate check value iteration history trace: 0.370533,0.370533,0.370533,0.370533,0.370533,0.370533,0.370533,0.370533,0.370533,0.370533,
   **   ~~~   ** Air System Named = CENTRAL SYSTEM did not converge for energy
   **   ~~~   ** Check values should be zero. Most Recent values listed first.
   **   ~~~   ** Demand-to-Supply interface energy check value iteration history trace: 8802.303455,8802.303457,8802.303460,8802.303462,8802.303465,8802.303467,8802.303469,8802.303472,8802.303474,8802.303476,
   **   ~~~   ** Supply-to-demand interface deck 1 energy check value iteration history trace: 4837.137520,4837.137521,4837.137523,4837.137524,4837.137525,4837.137526,4837.137528,4837.137529,4837.137530,4837.137532,
   ** Warning ** SimHVAC: Maximum iterations (20) exceeded for all HVAC loops, at ANNUAL, 04/10 22:53 - 23:00
   **   ~~~   ** The solution for one or more of the Air Loop HVAC systems did not appear to converge
   **   ~~~   ** Air System Named = CENTRAL SYSTEM did not converge for mass flow rate
   **   ~~~   ** Check values should be zero. Most Recent values listed first.
   **   ~~~   ** Demand-to-Supply interface mass flow rate check value iteration history trace: 3.866683E-002,3.866683E-002,3.866683E-002,3.866683E-002,3.866683E-002,3.866683E-002,3.866683E-002,3.866683E-002,3.866683E-002,3.866683E-002,
   **   ~~~   ** Supply-to-demand interface deck 1 mass flow rate check value iteration history trace: 3.866683E-002,3.866683E-002,3.866683E-002,3.866683E-002,3.866683E-002,3.866683E-002,3.866683E-002,3.866683E-002,3.866683E-002,3.866683E-002,
   **   ~~~   ** Air System Named = CENTRAL SYSTEM did not converge for energy
   **   ~~~   ** Check values should be zero. Most Recent values listed first.
   **   ~~~   ** Demand-to-Supply interface energy check value iteration history trace: 958.557338,958.557338,958.557338,958.557338,958.557339,958.557339,958.557339,958.557339,958.557339,958.557339,
   **   ~~~   ** Supply-to-demand interface deck 1 energy check value iteration history trace: 457.738830,457.738830,457.738830,457.738830,457.738830,457.738830,457.738830,457.738830,457.738830,457.738830,
   ** Warning ** SimHVAC: Maximum iterations (20) exceeded for all HVAC loops, at ANNUAL, 04/14 08:58 - 09:00
   **   ~~~   ** The solution for one or more of the Air Loop HVAC systems did not appear to converge
   **   ~~~   ** Air System Named = CENTRAL SYSTEM did not converge for mass flow rate
   **   ~~~   ** Check values should be zero. Most Recent values listed first.
   **   ~~~   ** Demand-to-Supply interface mass flow rate check value iteration history trace: 0.126363,0.126363,0.126363,0.126363,0.126363,0.126363,0.126363,0.126363,0.126363,0.126363,
   **   ~~~   ** Supply-to-demand interface deck 1 mass flow rate check value iteration history trace: 0.126363,0.126363,0.126363,0.126363,0.126363,0.126363,0.126363,0.126363,0.126363,0.126363,
   **   ~~~   ** Air System Named = CENTRAL SYSTEM did not converge for energy
   **   ~~~   ** Check values should be zero. Most Recent values listed first.
   **   ~~~   ** Demand-to-Supply interface energy check value iteration history trace: 2978.072425,2978.072425,2978.072425,2978.072425,2978.072426,2978.072426,2978.072426,2978.072426,2978.072426,2978.072427,
   **   ~~~   ** Supply-to-demand interface deck 1 energy check value iteration history trace: 1587.483626,1587.483626,1587.483626,1587.483627,1587.483627,1587.483627,1587.483627,1587.483627,1587.483627,1587.483627,
   ************* Simulation Error Summary *************
   ** Warning ** The following Report Variables were requested but not generated -- check.rdd file
   **   ~~~   ** Either the IDF did not contain these elements, the variable name is misspelled,
   **   ~~~   ** or the requested variable is an advanced output which requires Output : Diagnostics, DisplayAdvancedReportVariables;
   ************* Key=*, VarName=BASEBOARD TOTAL HEATING ENERGY, Frequency=
   ************* Key=*, VarName=WATER HEATER NATURALGAS ENERGY, Frequency=
   ************* Key=*, VarName=COOLING COIL TOTAL HEATING ENERGY, Frequency=
   ************* There are 34 unused schedules in input.
   ************* There are 388 unused week schedules in input.
   ************* There are 396 unused day schedules in input.
   ************* Use Output:Diagnostics,DisplayUnusedSchedules; to see them.
   *************
   ************* ===== Recurring Error Summary =====
   ************* The following recurring error messages occurred.
   *************
   *************  ** Warning ** "TOTAL HOT WATER LOAD" - Target water temperature should be less than or equal to the hot water temperature error continues...
   *************  **   ~~~   **   This error occurred 153393 total times;
   *************  **   ~~~   **   during Warmup 0 times;
   *************  **   ~~~   **   during Sizing 0 times.
   *************  **   ~~~   **   Max=10.855293  Min=3.072518E-003
   *************
   *************  ** Warning ** SimHVAC: Exceeding Maximum iterations for all HVAC loops, during ANNUAL continues
   *************  **   ~~~   **   This error occurred 12 total times;
   *************  **   ~~~   **   during Warmup 0 times;
   *************  **   ~~~   **   during Sizing 0 times.
   *************
   *************
   ************* ===== Final Error Summary =====
   ************* The following error categories occurred.  Consider correcting or noting.
   ************* Nominally Unused Constructions
   ************* ..The nominally unused constructions warning is provided to alert you to potential conditions that can cause
   ************* ..extra time during simulation. Each construction is calculated by the algorithm indicated in the HeatBalanceAlgorithm
   ************* ..object. You may remove the constructions indicated (when you use the DisplayExtraWarnings option).
   *************
   ************* EnergyPlus Warmup Error Summary. During Warmup: 1 Warning; 0 Severe Errors.
   ************* EnergyPlus Sizing Error Summary. During Sizing: 4 Warning; 0 Severe Errors.
   ************* EnergyPlus Completed Successfully-- 153437 Warning; 0 Severe Errors; Elapsed Time=00hr 01min 44.15sec
