Program Version,EnergyPlus, Version 22.2.0-c249759bad, YMD=2023.08.31 13:04,
   ************* Beginning Zone Sizing Calculations
   ** Warning ** ProcessScheduleInput: Schedule:Constant="ALWAYS ON DISCRETE", Schedule Type Limits Name="ONOFF" not found -- will not be validated
   ** Warning ** Foundation:Kiva="KIVA FOUNDATION", no Interior Horizontal Insulation Material Name defined
   **   ~~~   ** Interior Horizontal Insulation Depth will not be used.
   ** Warning ** CheckUsedConstructions: There are 15 nominally unused constructions in input.
   **   ~~~   ** Each Unused construction is shown.
   ************* Construction=INTERIOR FLOOR
   ************* Construction=INTERIOR WINDOW
   ************* Construction=EXTERIOR DOOR
   ************* Construction=INTERIOR DOOR
   ************* Construction=GABLE CONSTRUCTION
   ************* Construction=CRAWL_FLOOR
   ************* Construction=INSULATED PIPE
   ************* Construction=PLAIN PIPE
   ************* Construction=TDD PIPE
   ************* Construction=TDD DOME
   ************* Construction=TDD DIFFUSER
   ************* Construction=CRAWL WALL
   ************* Construction=CEILING-FLOOR-LAYER
   ************* Construction=SLAB CONSTRUCTION W FULL R10 INSULATION
   ************* Construction=SLAB CONSTRUCTION W FULL R5 INSULATION
   ** Warning ** GetDXCoils: Coil:Heating:DX:SingleSpeed="DX_HEATING_COIL" curve values
   **   ~~~   ** ... Defrost Energy Input Ratio Function of Temperature Curve Name = DEFROSTEIR output is not equal to 1.0 (+ or - 10%) at rated conditions.
   **   ~~~   ** ... Curve output at rated conditions = 0.152
   ************* Beginning System Sizing Calculations
   ************* Beginning Plant Sizing Calculations
   ** Warning ** Coil:WaterHeating:AirToWaterHeatPump:Wrapped "HEAT PUMP WATER HEATER EVAPORATOR": Rated air volume flow rate per watt of rated total water heating capacity is out of range
   **   ~~~   ** Min Rated Vol Flow Per Watt=[4.027E-005], Rated Vol Flow Per Watt=[1.386E-004], Max Rated Vol Flow Per Watt=[8.056E-005]. See Input-Output Reference Manual for valid range.
   ** Warning ** Water heater = WATER HEATER TANK:  Recovery Efficiency and Energy Factor could not be calculated during the test for standard ratings
   **   ~~~   ** Setpoint was never recovered and/or heater never turned on
   ** Warning ** Check input. Pump nominal power or motor efficiency is set to 0, for pump=MAINS PRESSURE
   ** Warning ** AirflowNetwork::Solver::validate_distribution: Heat pump water heater is simulated along with an AirflowNetwork but is not included in the AirflowNetwork.
   ** Warning ** Output:Meter: invalid Key Name="ELECTRIC_RANGE:INTERIOREQUIPMENT:ELECTRICITY" - not found.
   ** Warning ** Output:Meter: invalid Key Name="ELECTRIC_DRYER:INTERIOREQUIPMENT:ELECTRICITY" - not found.
   ** Warning ** Output:Meter: invalid Key Name="HEATRECOVERY:ELECTRICITY" - not found.
   ** Warning ** Output:Meter: invalid Key Name="HEATING:NATURALGAS" - not found.
   ** Warning ** Output:Meter: invalid Key Name="WATERSYSTEMS:NATURALGAS" - not found.
   ** Warning ** Output:Meter: invalid Key Name="PROPANE:FACILITY" - not found.
   ** Warning ** Output:Meter: invalid Key Name="HEATING:PROPANE" - not found.
   ************* Testing Individual Branch Integrity
   ************* All Branches passed integrity testing
   ************* Testing Individual Supply Air Path Integrity
   ************* All Supply Air Paths passed integrity testing
   ************* Testing Individual Return Air Path Integrity
   ************* All Return Air Paths passed integrity testing
   ************* No node connection errors were found.
   ************* Beginning Simulation
   ** Warning ** CalcEquipmentFlowRates: "TOTAL HOT WATER LOAD" - Target water temperature is greater than the hot water temperature by (3.39 C)
   **   ~~~   **  Environment=EXTREME_WINTER, at Simulation time=01/20 06:00 - 06:15
   **   ~~~   ** ...target water temperature     = 53.33 C
   **   ~~~   ** ...hot water temperature        = 49.95 C
   **   ~~~   ** ...Target water temperature should be less than or equal to the hot water temperature. Verify temperature setpoints and schedules.
   ** Warning ** SimHVAC: Maximum iterations (20) exceeded for all HVAC loops, at ANNUAL, 02/18 09:45 - 09:52
   **   ~~~   ** The solution for one or more of the Air Loop HVAC systems did not appear to converge
   **   ~~~   ** Air System Named = CENTRAL SYSTEM did not converge for mass flow rate
   **   ~~~   ** Check values should be zero. Most Recent values listed first.
   **   ~~~   ** Demand-to-Supply interface mass flow rate check value iteration history trace: 9.856112E-002,9.856112E-002,9.856112E-002,9.856112E-002,9.856112E-002,9.856112E-002,9.856112E-002,9.856112E-002,9.856112E-002,9.856112E-002,
   **   ~~~   ** Supply-to-demand interface deck 1 mass flow rate check value iteration history trace: 9.856112E-002,9.856112E-002,9.856112E-002,9.856112E-002,9.856112E-002,9.856112E-002,9.856112E-002,9.856112E-002,9.856112E-002,9.856112E-002,
   **   ~~~   ** Air System Named = CENTRAL SYSTEM did not converge for energy
   **   ~~~   ** Check values should be zero. Most Recent values listed first.
   **   ~~~   ** Demand-to-Supply interface energy check value iteration history trace: 1952.757594,1952.757591,1952.757587,1952.757584,1952.757581,1952.757577,1952.757574,1952.757570,1952.757567,1952.757564,
   **   ~~~   ** Supply-to-demand interface deck 1 energy check value iteration history trace: 3153.898270,3153.898264,3153.898259,3153.898253,3153.898248,3153.898242,3153.898237,3153.898231,3153.898226,3153.898220,
   ** Warning ** SimHVAC: Maximum iterations (20) exceeded for all HVAC loops, at ANNUAL, 02/18 10:40 - 10:45
   **   ~~~   ** The solution for one or more of the Air Loop HVAC systems did not appear to converge
   **   ~~~   ** Air System Named = CENTRAL SYSTEM did not converge for mass flow rate
   **   ~~~   ** Check values should be zero. Most Recent values listed first.
   **   ~~~   ** Demand-to-Supply interface mass flow rate check value iteration history trace: 6.759914E-002,6.759914E-002,6.759914E-002,6.759914E-002,6.759914E-002,6.759914E-002,6.759914E-002,6.759914E-002,6.759914E-002,6.759914E-002,
   **   ~~~   ** Supply-to-demand interface deck 1 mass flow rate check value iteration history trace: 6.759914E-002,6.759914E-002,6.759914E-002,6.759914E-002,6.759914E-002,6.759914E-002,6.759914E-002,6.759914E-002,6.759914E-002,6.759914E-002,
   **   ~~~   ** Air System Named = CENTRAL SYSTEM did not converge for energy
   **   ~~~   ** Check values should be zero. Most Recent values listed first.
   **   ~~~   ** Demand-to-Supply interface energy check value iteration history trace: 1334.812838,1334.812837,1334.812835,1334.812833,1334.812831,1334.812829,1334.812828,1334.812826,1334.812824,1334.812822,
   **   ~~~   ** Supply-to-demand interface deck 1 energy check value iteration history trace: 2364.989300,2364.989297,2364.989294,2364.989291,2364.989287,2364.989284,2364.989281,2364.989278,2364.989275,2364.989272,
   ** Warning ** SimHVAC: Maximum iterations (20) exceeded for all HVAC loops, at ANNUAL, 03/09 17:15 - 17:30
   **   ~~~   ** The solution for one or more of the Air Loop HVAC systems did not appear to converge
   **   ~~~   ** Air System Named = CENTRAL SYSTEM did not converge for mass flow rate
   **   ~~~   ** Check values should be zero. Most Recent values listed first.
   **   ~~~   ** Demand-to-Supply interface mass flow rate check value iteration history trace: 9.707673E-002,9.707673E-002,9.707673E-002,9.707673E-002,9.707673E-002,9.707673E-002,9.707673E-002,9.707673E-002,9.707673E-002,9.707673E-002,
   **   ~~~   ** Supply-to-demand interface deck 1 mass flow rate check value iteration history trace: 9.707673E-002,9.707673E-002,9.707673E-002,9.707673E-002,9.707673E-002,9.707673E-002,9.707673E-002,9.707673E-002,9.707673E-002,9.707673E-002,
   **   ~~~   ** Air System Named = CENTRAL SYSTEM did not converge for energy
   **   ~~~   ** Check values should be zero. Most Recent values listed first.
   **   ~~~   ** Demand-to-Supply interface energy check value iteration history trace: 1921.538806,1921.538803,1921.538801,1921.538799,1921.538796,1921.538794,1921.538792,1921.538789,1921.538787,1921.538784,
   **   ~~~   ** Supply-to-demand interface deck 1 energy check value iteration history trace: 3014.378159,3014.378155,3014.378152,3014.378148,3014.378144,3014.378140,3014.378137,3014.378133,3014.378129,3014.378126,
   ** Warning ** SimHVAC: Maximum iterations (20) exceeded for all HVAC loops, at ANNUAL, 03/16 08:04 - 08:08
   **   ~~~   ** The solution for one or more of the Air Loop HVAC systems did not appear to converge
   **   ~~~   ** Air System Named = CENTRAL SYSTEM did not converge for mass flow rate
   **   ~~~   ** Check values should be zero. Most Recent values listed first.
   **   ~~~   ** Demand-to-Supply interface mass flow rate check value iteration history trace: 7.297097E-002,7.297097E-002,7.297097E-002,7.297097E-002,7.297097E-002,7.297097E-002,7.297097E-002,7.297097E-002,7.297097E-002,7.297097E-002,
   **   ~~~   ** Supply-to-demand interface deck 1 mass flow rate check value iteration history trace: 7.297097E-002,7.297097E-002,7.297097E-002,7.297097E-002,7.297097E-002,7.297097E-002,7.297097E-002,7.297097E-002,7.297097E-002,7.297097E-002,
   **   ~~~   ** Air System Named = CENTRAL SYSTEM did not converge for energy
   **   ~~~   ** Check values should be zero. Most Recent values listed first.
   **   ~~~   ** Demand-to-Supply interface energy check value iteration history trace: 1446.025218,1446.025217,1446.025216,1446.025216,1446.025215,1446.025214,1446.025214,1446.025213,1446.025212,1446.025212,
   **   ~~~   ** Supply-to-demand interface deck 1 energy check value iteration history trace: 2664.165835,2664.165834,2664.165832,2664.165831,2664.165830,2664.165829,2664.165827,2664.165826,2664.165825,2664.165824,
   ** Warning ** SimHVAC: Maximum iterations (20) exceeded for all HVAC loops, at ANNUAL, 04/02 11:15 - 11:22
   **   ~~~   ** The solution for one or more of the Air Loop HVAC systems did not appear to converge
   **   ~~~   ** Air System Named = CENTRAL SYSTEM did not converge for mass flow rate
   **   ~~~   ** Check values should be zero. Most Recent values listed first.
   **   ~~~   ** Demand-to-Supply interface mass flow rate check value iteration history trace: 8.008917E-002,8.008917E-002,8.008917E-002,8.008917E-002,8.008917E-002,8.008917E-002,8.008917E-002,8.008917E-002,8.008917E-002,8.008917E-002,
   **   ~~~   ** Supply-to-demand interface deck 1 mass flow rate check value iteration history trace: 8.008917E-002,8.008917E-002,8.008917E-002,8.008917E-002,8.008917E-002,8.008917E-002,8.008917E-002,8.008917E-002,8.008917E-002,8.008917E-002,
   **   ~~~   ** Air System Named = CENTRAL SYSTEM did not converge for energy
   **   ~~~   ** Check values should be zero. Most Recent values listed first.
   **   ~~~   ** Demand-to-Supply interface energy check value iteration history trace: 1581.181526,1581.181524,1581.181523,1581.181521,1581.181520,1581.181518,1581.181516,1581.181515,1581.181513,1581.181512,
   **   ~~~   ** Supply-to-demand interface deck 1 energy check value iteration history trace: 2780.762955,2780.762952,2780.762949,2780.762946,2780.762944,2780.762941,2780.762938,2780.762935,2780.762933,2780.762930,
   ** Warning ** SimHVAC: Maximum iterations (20) exceeded for all HVAC loops, at ANNUAL, 04/02 12:45 - 13:00
   **   ~~~   ** The solution for one or more of the Air Loop HVAC systems did not appear to converge
   **   ~~~   ** Air System Named = CENTRAL SYSTEM did not converge for mass flow rate
   **   ~~~   ** Check values should be zero. Most Recent values listed first.
   **   ~~~   ** Demand-to-Supply interface mass flow rate check value iteration history trace: 6.293380E-002,6.293380E-002,6.293380E-002,6.293380E-002,6.293380E-002,6.293380E-002,6.293380E-002,6.293380E-002,6.293380E-002,6.293380E-002,
   **   ~~~   ** Supply-to-demand interface deck 1 mass flow rate check value iteration history trace: 6.293380E-002,6.293380E-002,6.293380E-002,6.293380E-002,6.293380E-002,6.293380E-002,6.293380E-002,6.293380E-002,6.293380E-002,6.293380E-002,
   **   ~~~   ** Air System Named = CENTRAL SYSTEM did not converge for energy
   **   ~~~   ** Check values should be zero. Most Recent values listed first.
   **   ~~~   ** Demand-to-Supply interface energy check value iteration history trace: 1219.099938,1219.099937,1219.099936,1219.099935,1219.099933,1219.099932,1219.099931,1219.099930,1219.099929,1219.099927,
   **   ~~~   ** Supply-to-demand interface deck 1 energy check value iteration history trace: 2170.476583,2170.476581,2170.476579,2170.476576,2170.476574,2170.476572,2170.476570,2170.476568,2170.476566,2170.476564,
   ** Warning ** SimHVAC: Maximum iterations (20) exceeded for all HVAC loops, at ANNUAL, 04/18 06:45 - 06:50
   **   ~~~   ** The solution for one or more of the Air Loop HVAC systems did not appear to converge
   **   ~~~   ** Air System Named = CENTRAL SYSTEM did not converge for mass flow rate
   **   ~~~   ** Check values should be zero. Most Recent values listed first.
   **   ~~~   ** Demand-to-Supply interface mass flow rate check value iteration history trace: 7.637826E-002,7.637826E-002,7.637826E-002,7.637826E-002,7.637826E-002,7.637826E-002,7.637826E-002,7.637826E-002,7.637826E-002,7.637826E-002,
   **   ~~~   ** Supply-to-demand interface deck 1 mass flow rate check value iteration history trace: 7.637826E-002,7.637826E-002,7.637826E-002,7.637826E-002,7.637826E-002,7.637826E-002,7.637826E-002,7.637826E-002,7.637826E-002,7.637826E-002,
   **   ~~~   ** Air System Named = CENTRAL SYSTEM did not converge for energy
   **   ~~~   ** Check values should be zero. Most Recent values listed first.
   **   ~~~   ** Demand-to-Supply interface energy check value iteration history trace: 1513.448003,1513.448002,1513.448000,1513.447999,1513.447997,1513.447996,1513.447994,1513.447993,1513.447991,1513.447990,
   **   ~~~   ** Supply-to-demand interface deck 1 energy check value iteration history trace: 2707.161714,2707.161712,2707.161709,2707.161706,2707.161704,2707.161701,2707.161698,2707.161696,2707.161693,2707.161691,
   ** Warning ** SimHVAC: Maximum iterations (20) exceeded for all HVAC loops, at ANNUAL, 05/10 07:00 - 07:04
   **   ~~~   ** The solution for one or more of the Air Loop HVAC systems did not appear to converge
   **   ~~~   ** Air System Named = CENTRAL SYSTEM did not converge for mass flow rate
   **   ~~~   ** Check values should be zero. Most Recent values listed first.
   **   ~~~   ** Demand-to-Supply interface mass flow rate check value iteration history trace: 7.908855E-002,7.908855E-002,7.908855E-002,7.908855E-002,7.908855E-002,7.908855E-002,7.908855E-002,7.908855E-002,7.908855E-002,7.908855E-002,
   **   ~~~   ** Supply-to-demand interface deck 1 mass flow rate check value iteration history trace: 7.908855E-002,7.908855E-002,7.908855E-002,7.908855E-002,7.908855E-002,7.908855E-002,7.908855E-002,7.908855E-002,7.908855E-002,7.908855E-002,
   **   ~~~   ** Air System Named = CENTRAL SYSTEM did not converge for energy
   **   ~~~   ** Check values should be zero. Most Recent values listed first.
   **   ~~~   ** Demand-to-Supply interface energy check value iteration history trace: 1557.893158,1557.893157,1557.893155,1557.893154,1557.893153,1557.893151,1557.893150,1557.893148,1557.893147,1557.893145,
   **   ~~~   ** Supply-to-demand interface deck 1 energy check value iteration history trace: 2897.717043,2897.717041,2897.717038,2897.717035,2897.717033,2897.717030,2897.717027,2897.717025,2897.717022,2897.717019,
   ** Warning ** SimHVAC: Maximum iterations (20) exceeded for all HVAC loops, at ANNUAL, 05/16 06:00 - 06:15
   **   ~~~   ** The solution for one or more of the Air Loop HVAC systems did not appear to converge
   **   ~~~   ** Air System Named = CENTRAL SYSTEM did not converge for mass flow rate
   **   ~~~   ** Check values should be zero. Most Recent values listed first.
   **   ~~~   ** Demand-to-Supply interface mass flow rate check value iteration history trace: 6.453086E-002,6.453086E-002,6.453086E-002,6.453086E-002,6.453086E-002,6.453086E-002,6.453086E-002,6.453086E-002,6.453086E-002,6.453086E-002,
   **   ~~~   ** Supply-to-demand interface deck 1 mass flow rate check value iteration history trace: 6.453086E-002,6.453086E-002,6.453086E-002,6.453086E-002,6.453086E-002,6.453086E-002,6.453086E-002,6.453086E-002,6.453086E-002,6.453086E-002,
   **   ~~~   ** Air System Named = CENTRAL SYSTEM did not converge for energy
   **   ~~~   ** Check values should be zero. Most Recent values listed first.
   **   ~~~   ** Demand-to-Supply interface energy check value iteration history trace: 1278.867973,1278.867972,1278.867972,1278.867971,1278.867970,1278.867969,1278.867968,1278.867968,1278.867967,1278.867966,
   **   ~~~   ** Supply-to-demand interface deck 1 energy check value iteration history trace: 2389.634585,2389.634584,2389.634582,2389.634581,2389.634579,2389.634578,2389.634576,2389.634575,2389.634573,2389.634572,
   ** Warning ** SimHVAC: Maximum iterations (20) exceeded for all HVAC loops, at ANNUAL, 08/25 06:30 - 06:38
   **   ~~~   ** The solution for one or more of the Air Loop HVAC systems did not appear to converge
   **   ~~~   ** Air System Named = CENTRAL SYSTEM did not converge for mass flow rate
   **   ~~~   ** Check values should be zero. Most Recent values listed first.
   **   ~~~   ** Demand-to-Supply interface mass flow rate check value iteration history trace: 7.202499E-002,7.202499E-002,7.202499E-002,7.202499E-002,7.202499E-002,7.202499E-002,7.202499E-002,7.202499E-002,7.202499E-002,7.202499E-002,
   **   ~~~   ** Supply-to-demand interface deck 1 mass flow rate check value iteration history trace: 7.202499E-002,7.202499E-002,7.202499E-002,7.202499E-002,7.202499E-002,7.202499E-002,7.202499E-002,7.202499E-002,7.202499E-002,7.202499E-002,
   **   ~~~   ** Air System Named = CENTRAL SYSTEM did not converge for energy
   **   ~~~   ** Check values should be zero. Most Recent values listed first.
   **   ~~~   ** Demand-to-Supply interface energy check value iteration history trace: 1688.722845,1688.722847,1688.722848,1688.722850,1688.722852,1688.722854,1688.722856,1688.722858,1688.722859,1688.722861,
   **   ~~~   ** Supply-to-demand interface deck 1 energy check value iteration history trace: 743.290049,743.290050,743.290051,743.290051,743.290052,743.290053,743.290054,743.290055,743.290055,743.290056,
   ** Warning ** SimHVAC: Maximum iterations (20) exceeded for all HVAC loops, at ANNUAL, 09/13 08:53 - 08:56
   **   ~~~   ** The solution for one or more of the Air Loop HVAC systems did not appear to converge
   **   ~~~   ** Air System Named = CENTRAL SYSTEM did not converge for mass flow rate
   **   ~~~   ** Check values should be zero. Most Recent values listed first.
   **   ~~~   ** Demand-to-Supply interface mass flow rate check value iteration history trace: 6.035203E-002,6.035203E-002,6.035203E-002,6.035203E-002,6.035203E-002,6.035203E-002,6.035203E-002,6.035203E-002,6.035203E-002,6.035203E-002,
   **   ~~~   ** Supply-to-demand interface deck 1 mass flow rate check value iteration history trace: 6.035203E-002,6.035203E-002,6.035203E-002,6.035203E-002,6.035203E-002,6.035203E-002,6.035203E-002,6.035203E-002,6.035203E-002,6.035203E-002,
   **   ~~~   ** Air System Named = CENTRAL SYSTEM did not converge for energy
   **   ~~~   ** Check values should be zero. Most Recent values listed first.
   **   ~~~   ** Demand-to-Supply interface energy check value iteration history trace: 1190.154144,1190.154143,1190.154141,1190.154140,1190.154138,1190.154136,1190.154135,1190.154133,1190.154132,1190.154130,
   **   ~~~   ** Supply-to-demand interface deck 1 energy check value iteration history trace: 2199.971054,2199.971051,2199.971049,2199.971046,2199.971043,2199.971040,2199.971037,2199.971034,2199.971031,2199.971028,
   **   ~~~   ** Node named ZONE INLET NODE shows oscillating temperatures across iterations with a repeated value of 36.276592
   **   ~~~   ** Node named ZONE INLET NODE temperature [C] iteration history trace (most recent first): 36.276592,36.276592,36.276592,36.276592,36.276592,36.276591,36.276591,36.276591,36.276591,36.276590,
   ** Warning ** SimHVAC: Maximum iterations (20) exceeded for all HVAC loops, at ANNUAL, 10/06 06:30 - 06:38
   **   ~~~   ** The solution for one or more of the Air Loop HVAC systems did not appear to converge
   **   ~~~   ** Air System Named = CENTRAL SYSTEM did not converge for mass flow rate
   **   ~~~   ** Check values should be zero. Most Recent values listed first.
   **   ~~~   ** Demand-to-Supply interface mass flow rate check value iteration history trace: 6.183834E-002,6.183834E-002,6.183834E-002,6.183834E-002,6.183834E-002,6.183834E-002,6.183834E-002,6.183834E-002,6.183834E-002,6.183834E-002,
   **   ~~~   ** Supply-to-demand interface deck 1 mass flow rate check value iteration history trace: 6.183834E-002,6.183834E-002,6.183834E-002,6.183834E-002,6.183834E-002,6.183834E-002,6.183834E-002,6.183834E-002,6.183834E-002,6.183834E-002,
   **   ~~~   ** Air System Named = CENTRAL SYSTEM did not converge for energy
   **   ~~~   ** Check values should be zero. Most Recent values listed first.
   **   ~~~   ** Demand-to-Supply interface energy check value iteration history trace: 1226.471233,1226.471232,1226.471231,1226.471230,1226.471229,1226.471228,1226.471227,1226.471226,1226.471225,1226.471224,
   **   ~~~   ** Supply-to-demand interface deck 1 energy check value iteration history trace: 2254.883704,2254.883702,2254.883701,2254.883699,2254.883697,2254.883695,2254.883694,2254.883692,2254.883690,2254.883689,
   ** Warning ** SimHVAC: Maximum iterations (20) exceeded for all HVAC loops, at ANNUAL, 10/11 08:50 - 08:52
   **   ~~~   ** The solution for one or more of the Air Loop HVAC systems did not appear to converge
   **   ~~~   ** Air System Named = CENTRAL SYSTEM did not converge for mass flow rate
   **   ~~~   ** Check values should be zero. Most Recent values listed first.
   **   ~~~   ** Demand-to-Supply interface mass flow rate check value iteration history trace: 5.775540E-002,5.775540E-002,5.775540E-002,5.775540E-002,5.775540E-002,5.775540E-002,5.775540E-002,5.775540E-002,5.775540E-002,5.775540E-002,
   **   ~~~   ** Supply-to-demand interface deck 1 mass flow rate check value iteration history trace: 5.775540E-002,5.775540E-002,5.775540E-002,5.775540E-002,5.775540E-002,5.775540E-002,5.775540E-002,5.775540E-002,5.775540E-002,5.775540E-002,
   **   ~~~   ** Air System Named = CENTRAL SYSTEM did not converge for energy
   **   ~~~   ** Check values should be zero. Most Recent values listed first.
   **   ~~~   ** Demand-to-Supply interface energy check value iteration history trace: 1140.177684,1140.177683,1140.177682,1140.177682,1140.177681,1140.177681,1140.177680,1140.177680,1140.177679,1140.177679,
   **   ~~~   ** Supply-to-demand interface deck 1 energy check value iteration history trace: 2171.702258,2171.702257,2171.702256,2171.702255,2171.702254,2171.702253,2171.702252,2171.702251,2171.702250,2171.702249,
   ** Warning ** SimHVAC: Maximum iterations (20) exceeded for all HVAC loops, at ANNUAL, 10/15 09:45 - 10:00
   **   ~~~   ** The solution for one or more of the Air Loop HVAC systems did not appear to converge
   **   ~~~   ** Air System Named = CENTRAL SYSTEM did not converge for mass flow rate
   **   ~~~   ** Check values should be zero. Most Recent values listed first.
   **   ~~~   ** Demand-to-Supply interface mass flow rate check value iteration history trace: 6.023517E-002,6.023517E-002,6.023517E-002,6.023517E-002,6.023517E-002,6.023517E-002,6.023517E-002,6.023517E-002,6.023517E-002,6.023517E-002,
   **   ~~~   ** Supply-to-demand interface deck 1 mass flow rate check value iteration history trace: 6.023517E-002,6.023517E-002,6.023517E-002,6.023517E-002,6.023517E-002,6.023517E-002,6.023517E-002,6.023517E-002,6.023517E-002,6.023517E-002,
   **   ~~~   ** Air System Named = CENTRAL SYSTEM did not converge for energy
   **   ~~~   ** Check values should be zero. Most Recent values listed first.
   **   ~~~   ** Demand-to-Supply interface energy check value iteration history trace: 1192.296417,1192.296416,1192.296415,1192.296414,1192.296413,1192.296412,1192.296411,1192.296410,1192.296409,1192.296408,
   **   ~~~   ** Supply-to-demand interface deck 1 energy check value iteration history trace: 2236.854973,2236.854971,2236.854969,2236.854967,2236.854965,2236.854963,2236.854962,2236.854960,2236.854958,2236.854956,
   ************* Simulation Error Summary *************
   ** Warning ** The following Report Variables were requested but not generated -- check.rdd file
   **   ~~~   ** Either the IDF did not contain these elements, the variable name is misspelled,
   **   ~~~   ** or the requested variable is an advanced output which requires Output : Diagnostics, DisplayAdvancedReportVariables;
   ************* Key=*, VarName=BASEBOARD TOTAL HEATING ENERGY, Frequency=
   ************* Key=*, VarName=WATER HEATER NATURALGAS ENERGY, Frequency=
   ************* Key=*, VarName=COOLING COIL TOTAL HEATING ENERGY, Frequency=
   ************* There are 34 unused schedules in input.
   ************* There are 388 unused week schedules in input.
   ************* There are 396 unused day schedules in input.
   ************* Use Output:Diagnostics,DisplayUnusedSchedules; to see them.
   *************
   ************* ===== Recurring Error Summary =====
   ************* The following recurring error messages occurred.
   *************
   *************  ** Warning ** "TOTAL HOT WATER LOAD" - Target water temperature should be less than or equal to the hot water temperature error continues...
   *************  **   ~~~   **   This error occurred 103069 total times;
   *************  **   ~~~   **   during Warmup 0 times;
   *************  **   ~~~   **   during Sizing 0 times.
   *************  **   ~~~   **   Max=19.906212  Min=8.172720E-004
   *************
   *************  ** Warning ** SimHVAC: Exceeding Maximum iterations for all HVAC loops, during ANNUAL continues
   *************  **   ~~~   **   This error occurred 3 total times;
   *************  **   ~~~   **   during Warmup 0 times;
   *************  **   ~~~   **   during Sizing 0 times.
   *************
   *************
   ************* ===== Final Error Summary =====
   ************* The following error categories occurred.  Consider correcting or noting.
   ************* Nominally Unused Constructions
   ************* ..The nominally unused constructions warning is provided to alert you to potential conditions that can cause
   ************* ..extra time during simulation. Each construction is calculated by the algorithm indicated in the HeatBalanceAlgorithm
   ************* ..object. You may remove the constructions indicated (when you use the DisplayExtraWarnings option).
   *************
   ************* EnergyPlus Warmup Error Summary. During Warmup: 0 Warning; 0 Severe Errors.
   ************* EnergyPlus Sizing Error Summary. During Sizing: 4 Warning; 0 Severe Errors.
   ************* EnergyPlus Completed Successfully-- 103103 Warning; 0 Severe Errors; Elapsed Time=00hr 05min  9.92sec
