Program Version,EnergyPlus, Version 22.2.0-c249759bad, YMD=2023.09.01 18:53,
   ************* Beginning Zone Sizing Calculations
   ** Warning ** ProcessScheduleInput: Schedule:Constant="ALWAYS ON DISCRETE", Schedule Type Limits Name="ONOFF" not found -- will not be validated
   ** Warning ** Foundation:Kiva="KIVA FOUNDATION", no Interior Horizontal Insulation Material Name defined
   **   ~~~   ** Interior Horizontal Insulation Depth will not be used.
   ** Warning ** CheckUsedConstructions: There are 15 nominally unused constructions in input.
   **   ~~~   ** Each Unused construction is shown.
   ************* Construction=INTERIOR FLOOR
   ************* Construction=INTERIOR WINDOW
   ************* Construction=EXTERIOR DOOR
   ************* Construction=INTERIOR DOOR
   ************* Construction=GABLE CONSTRUCTION
   ************* Construction=CRAWL_FLOOR
   ************* Construction=INSULATED PIPE
   ************* Construction=PLAIN PIPE
   ************* Construction=TDD PIPE
   ************* Construction=TDD DOME
   ************* Construction=TDD DIFFUSER
   ************* Construction=CRAWL WALL
   ************* Construction=CEILING-FLOOR-LAYER
   ************* Construction=SLAB CONSTRUCTION W FULL R10 INSULATION
   ************* Construction=SLAB CONSTRUCTION W FULL R5 INSULATION
   ** Warning ** GetDXCoils: Coil:Heating:DX:SingleSpeed="DX_HEATING_COIL" curve values
   **   ~~~   ** ... Defrost Energy Input Ratio Function of Temperature Curve Name = DEFROSTEIR output is not equal to 1.0 (+ or - 10%) at rated conditions.
   **   ~~~   ** ... Curve output at rated conditions = 0.152
   ************* Beginning System Sizing Calculations
   ************* Beginning Plant Sizing Calculations
   ** Warning ** SizeDXCoil Coil:Cooling:DX:SingleSpeed DX_COOLING_COIL
   **   ~~~   ** ...Gross Rated Total Cooling Capacity [W] will be limited by the maximum rated volume flow per rated total capacity ratio.
   **   ~~~   ** ...DX coil volume flow rate ( m3/s ) = 0.511343
   **   ~~~   ** ...Requested capacity ( W ) = 7369.153
   **   ~~~   ** ...Requested flow/capacity ratio ( m3/s/W ) = 6.938E-005
   **   ~~~   ** ...Maximum flow/capacity ratio ( m3/s/W ) = 6.041E-005
   **   ~~~   ** ...Adjusted capacity ( W ) = 8464.552
   ** Warning ** SizeDXCoil Coil:Heating:DX:SingleSpeed DX_HEATING_COIL
   **   ~~~   ** ...Gross Rated Heating Capacity [W] will be limited by the maximum rated volume flow per rated total capacity ratio.
   **   ~~~   ** ...DX coil volume flow rate ( m3/s ) = 0.511343
   **   ~~~   ** ...Requested capacity ( W ) = 8464.552
   **   ~~~   ** ...Requested flow/capacity ratio ( m3/s/W ) = 6.041E-005
   **   ~~~   ** ...Maximum flow/capacity ratio ( m3/s/W ) = 6.041E-005
   **   ~~~   ** ...Adjusted capacity ( W ) = 8464.552
   ** Warning ** Coil:WaterHeating:AirToWaterHeatPump:Wrapped "HEAT PUMP WATER HEATER EVAPORATOR": Rated air volume flow rate per watt of rated total water heating capacity is out of range
   **   ~~~   ** Min Rated Vol Flow Per Watt=[4.027E-005], Rated Vol Flow Per Watt=[1.510E-004], Max Rated Vol Flow Per Watt=[8.056E-005]. See Input-Output Reference Manual for valid range.
   ************* SizeFan: : Potential issue with equipment sizing for Fan:OnOff HEAT PUMP WATER HEATER FAN
   **   ~~~   ** User-Specified Maximum Flow Rate [m3/s] = 0.22653
   **   ~~~   ** differs from Design Size Maximum Flow Rate [m3/s] = 7.55250E-002
   **   ~~~   ** This may, or may not, indicate mismatched component sizes.
   **   ~~~   ** Verify that the value entered is intended and is consistent with other components.
   ** Warning ** Water heater = WATER HEATER TANK:  Recovery Efficiency and Energy Factor could not be calculated during the test for standard ratings
   **   ~~~   ** Setpoint was never recovered and/or heater never turned on
   ** Warning ** Check input. Pump nominal power or motor efficiency is set to 0, for pump=MAINS PRESSURE
   ** Warning ** Output:Meter: invalid Key Name="ELECTRIC_RANGE:INTERIOREQUIPMENT:ELECTRICITY" - not found.
   ** Warning ** Output:Meter: invalid Key Name="ELECTRIC_DRYER:INTERIOREQUIPMENT:ELECTRICITY" - not found.
   ** Warning ** Output:Meter: invalid Key Name="HEATRECOVERY:ELECTRICITY" - not found.
   ** Warning ** Output:Meter: invalid Key Name="HEATING:NATURALGAS" - not found.
   ** Warning ** Output:Meter: invalid Key Name="WATERSYSTEMS:NATURALGAS" - not found.
   ** Warning ** Output:Meter: invalid Key Name="PROPANE:FACILITY" - not found.
   ** Warning ** Output:Meter: invalid Key Name="HEATING:PROPANE" - not found.
   ************* Testing Individual Branch Integrity
   ************* All Branches passed integrity testing
   ************* Testing Individual Supply Air Path Integrity
   ************* All Supply Air Paths passed integrity testing
   ************* Testing Individual Return Air Path Integrity
   ************* All Return Air Paths passed integrity testing
   ************* No node connection errors were found.
   ************* Beginning Simulation
   ** Warning ** AirflowNetwork::Solver::validate_distribution: Heat pump water heater is simulated along with an AirflowNetwork but is not included in the AirflowNetwork.
   ** Warning ** CalcEquipmentFlowRates: "TOTAL HOT WATER LOAD" - Target water temperature is greater than the hot water temperature by (0.57 C)
   **   ~~~   **  Environment=EXTREME_WINTER, at Simulation time=12/15 03:45 - 04:00
   **   ~~~   ** ...target water temperature     = 53.33 C
   **   ~~~   ** ...hot water temperature        = 52.76 C
   **   ~~~   ** ...Target water temperature should be less than or equal to the hot water temperature. Verify temperature setpoints and schedules.
   ** Warning ** SimHVAC: Maximum iterations (20) exceeded for all HVAC loops, at ANNUAL, 02/02 12:40 - 12:45
   **   ~~~   ** The solution for one or more of the Air Loop HVAC systems did not appear to converge
   **   ~~~   ** Air System Named = CENTRAL SYSTEM did not converge for mass flow rate
   **   ~~~   ** Check values should be zero. Most Recent values listed first.
   **   ~~~   ** Demand-to-Supply interface mass flow rate check value iteration history trace: 5.696620E-002,5.696620E-002,5.696620E-002,5.696620E-002,5.696620E-002,5.696620E-002,5.696620E-002,5.696620E-002,5.696620E-002,5.696620E-002,
   **   ~~~   ** Supply-to-demand interface deck 1 mass flow rate check value iteration history trace: 5.696620E-002,5.696620E-002,5.696620E-002,5.696620E-002,5.696620E-002,5.696620E-002,5.696620E-002,5.696620E-002,5.696620E-002,5.696620E-002,
   **   ~~~   ** Air System Named = CENTRAL SYSTEM did not converge for energy
   **   ~~~   ** Check values should be zero. Most Recent values listed first.
   **   ~~~   ** Demand-to-Supply interface energy check value iteration history trace: 1124.057990,1124.057990,1124.057990,1124.057990,1124.057990,1124.057990,1124.057990,1124.057990,1124.057989,1124.057989,
   **   ~~~   ** Supply-to-demand interface deck 1 energy check value iteration history trace: 1956.895345,1956.895345,1956.895345,1956.895345,1956.895345,1956.895345,1956.895345,1956.895345,1956.895344,1956.895344,
   ** Warning ** SimHVAC: Maximum iterations (20) exceeded for all HVAC loops, at ANNUAL, 02/08 22:10 - 22:15
   **   ~~~   ** The solution for one or more of the Air Loop HVAC systems did not appear to converge
   **   ~~~   ** Air System Named = CENTRAL SYSTEM did not converge for mass flow rate
   **   ~~~   ** Check values should be zero. Most Recent values listed first.
   **   ~~~   ** Demand-to-Supply interface mass flow rate check value iteration history trace: 7.294182E-002,7.294182E-002,7.294182E-002,7.294182E-002,7.294182E-002,7.294182E-002,7.294182E-002,7.294182E-002,7.294182E-002,7.294182E-002,
   **   ~~~   ** Supply-to-demand interface deck 1 mass flow rate check value iteration history trace: 7.294182E-002,7.294182E-002,7.294182E-002,7.294182E-002,7.294182E-002,7.294182E-002,7.294182E-002,7.294182E-002,7.294182E-002,7.294182E-002,
   **   ~~~   ** Air System Named = CENTRAL SYSTEM did not converge for energy
   **   ~~~   ** Check values should be zero. Most Recent values listed first.
   **   ~~~   ** Demand-to-Supply interface energy check value iteration history trace: 1382.127759,1382.127759,1382.127759,1382.127759,1382.127759,1382.127759,1382.127759,1382.127759,1382.127759,1382.127759,
   **   ~~~   ** Supply-to-demand interface deck 1 energy check value iteration history trace: 2171.908494,2171.908494,2171.908494,2171.908494,2171.908493,2171.908493,2171.908493,2171.908493,2171.908493,2171.908493,
   ** Warning ** SimHVAC: Maximum iterations (20) exceeded for all HVAC loops, at ANNUAL, 02/19 14:30 - 14:45
   **   ~~~   ** The solution for one or more of the Air Loop HVAC systems did not appear to converge
   **   ~~~   ** Air System Named = CENTRAL SYSTEM did not converge for mass flow rate
   **   ~~~   ** Check values should be zero. Most Recent values listed first.
   **   ~~~   ** Demand-to-Supply interface mass flow rate check value iteration history trace: 6.872168E-002,6.872168E-002,6.872168E-002,6.872168E-002,6.872168E-002,6.872168E-002,6.872168E-002,6.872168E-002,6.872168E-002,6.872168E-002,
   **   ~~~   ** Supply-to-demand interface deck 1 mass flow rate check value iteration history trace: 6.872168E-002,6.872168E-002,6.872168E-002,6.872168E-002,6.872168E-002,6.872168E-002,6.872168E-002,6.872168E-002,6.872168E-002,6.872168E-002,
   **   ~~~   ** Air System Named = CENTRAL SYSTEM did not converge for energy
   **   ~~~   ** Check values should be zero. Most Recent values listed first.
   **   ~~~   ** Demand-to-Supply interface energy check value iteration history trace: 1361.821541,1361.821541,1361.821541,1361.821541,1361.821541,1361.821541,1361.821541,1361.821540,1361.821540,1361.821540,
   **   ~~~   ** Supply-to-demand interface deck 1 energy check value iteration history trace: 2214.107300,2214.107300,2214.107300,2214.107300,2214.107300,2214.107300,2214.107299,2214.107299,2214.107299,2214.107299,
   ** Warning ** SimHVAC: Maximum iterations (20) exceeded for all HVAC loops, at ANNUAL, 02/26 15:45 - 16:00
   **   ~~~   ** The solution for one or more of the Air Loop HVAC systems did not appear to converge
   **   ~~~   ** Air System Named = CENTRAL SYSTEM did not converge for mass flow rate
   **   ~~~   ** Check values should be zero. Most Recent values listed first.
   **   ~~~   ** Demand-to-Supply interface mass flow rate check value iteration history trace: 7.380303E-002,7.380303E-002,7.380303E-002,7.380303E-002,7.380303E-002,7.380303E-002,7.380303E-002,7.380303E-002,7.380303E-002,7.380303E-002,
   **   ~~~   ** Supply-to-demand interface deck 1 mass flow rate check value iteration history trace: 7.380303E-002,7.380303E-002,7.380303E-002,7.380303E-002,7.380303E-002,7.380303E-002,7.380303E-002,7.380303E-002,7.380303E-002,7.380303E-002,
   **   ~~~   ** Air System Named = CENTRAL SYSTEM did not converge for energy
   **   ~~~   ** Check values should be zero. Most Recent values listed first.
   **   ~~~   ** Demand-to-Supply interface energy check value iteration history trace: 1462.499268,1462.499268,1462.499267,1462.499267,1462.499267,1462.499267,1462.499267,1462.499267,1462.499267,1462.499267,
   **   ~~~   ** Supply-to-demand interface deck 1 energy check value iteration history trace: 2353.503465,2353.503464,2353.503464,2353.503464,2353.503464,2353.503464,2353.503464,2353.503464,2353.503463,2353.503463,
   ** Warning ** SimHVAC: Maximum iterations (20) exceeded for all HVAC loops, at ANNUAL, 03/14 11:45 - 12:00
   **   ~~~   ** The solution for one or more of the Air Loop HVAC systems did not appear to converge
   **   ~~~   ** Air System Named = CENTRAL SYSTEM did not converge for mass flow rate
   **   ~~~   ** Check values should be zero. Most Recent values listed first.
   **   ~~~   ** Demand-to-Supply interface mass flow rate check value iteration history trace: 5.517152E-002,5.517152E-002,5.517152E-002,5.517152E-002,5.517152E-002,5.517152E-002,5.517152E-002,5.517152E-002,5.517152E-002,5.517152E-002,
   **   ~~~   ** Supply-to-demand interface deck 1 mass flow rate check value iteration history trace: 5.517152E-002,5.517152E-002,5.517152E-002,5.517152E-002,5.517152E-002,5.517152E-002,5.517152E-002,5.517152E-002,5.517152E-002,5.517152E-002,
   **   ~~~   ** Air System Named = CENTRAL SYSTEM did not converge for energy
   **   ~~~   ** Check values should be zero. Most Recent values listed first.
   **   ~~~   ** Demand-to-Supply interface energy check value iteration history trace: 1093.352333,1093.352333,1093.352333,1093.352333,1093.352333,1093.352333,1093.352333,1093.352333,1093.352333,1093.352333,
   **   ~~~   ** Supply-to-demand interface deck 1 energy check value iteration history trace: 1996.616341,1996.616341,1996.616341,1996.616341,1996.616341,1996.616341,1996.616341,1996.616341,1996.616341,1996.616341,
   ** Warning ** SimHVAC: Maximum iterations (20) exceeded for all HVAC loops, at ANNUAL, 03/27 19:15 - 19:20
   **   ~~~   ** The solution for one or more of the Air Loop HVAC systems did not appear to converge
   **   ~~~   ** Air System Named = CENTRAL SYSTEM did not converge for mass flow rate
   **   ~~~   ** Check values should be zero. Most Recent values listed first.
   **   ~~~   ** Demand-to-Supply interface mass flow rate check value iteration history trace: 8.576229E-002,8.576229E-002,8.576229E-002,8.576229E-002,8.576229E-002,8.576229E-002,8.576229E-002,8.576229E-002,8.576229E-002,8.576229E-002,
   **   ~~~   ** Supply-to-demand interface deck 1 mass flow rate check value iteration history trace: 8.576229E-002,8.576229E-002,8.576229E-002,8.576229E-002,8.576229E-002,8.576229E-002,8.576229E-002,8.576229E-002,8.576229E-002,8.576229E-002,
   **   ~~~   ** Air System Named = CENTRAL SYSTEM did not converge for energy
   **   ~~~   ** Check values should be zero. Most Recent values listed first.
   **   ~~~   ** Demand-to-Supply interface energy check value iteration history trace: 1690.363682,1690.363682,1690.363681,1690.363681,1690.363681,1690.363681,1690.363681,1690.363681,1690.363681,1690.363681,
   **   ~~~   ** Supply-to-demand interface deck 1 energy check value iteration history trace: 2619.126518,2619.126518,2619.126518,2619.126518,2619.126518,2619.126517,2619.126517,2619.126517,2619.126517,2619.126517,
   ** Warning ** SimHVAC: Maximum iterations (20) exceeded for all HVAC loops, at ANNUAL, 03/29 17:15 - 17:30
   **   ~~~   ** The solution for one or more of the Air Loop HVAC systems did not appear to converge
   **   ~~~   ** Air System Named = CENTRAL SYSTEM did not converge for mass flow rate
   **   ~~~   ** Check values should be zero. Most Recent values listed first.
   **   ~~~   ** Demand-to-Supply interface mass flow rate check value iteration history trace: 5.338411E-002,5.338411E-002,5.338411E-002,5.338411E-002,5.338411E-002,5.338411E-002,5.338411E-002,5.338411E-002,5.338411E-002,5.338411E-002,
   **   ~~~   ** Supply-to-demand interface deck 1 mass flow rate check value iteration history trace: 5.338411E-002,5.338411E-002,5.338411E-002,5.338411E-002,5.338411E-002,5.338411E-002,5.338411E-002,5.338411E-002,5.338411E-002,5.338411E-002,
   **   ~~~   ** Air System Named = CENTRAL SYSTEM did not converge for energy
   **   ~~~   ** Check values should be zero. Most Recent values listed first.
   **   ~~~   ** Demand-to-Supply interface energy check value iteration history trace: 1058.191005,1058.191005,1058.191005,1058.191005,1058.191005,1058.191005,1058.191004,1058.191004,1058.191004,1058.191004,
   **   ~~~   ** Supply-to-demand interface deck 1 energy check value iteration history trace: 1872.636137,1872.636137,1872.636137,1872.636137,1872.636137,1872.636136,1872.636136,1872.636136,1872.636136,1872.636136,
   ** Warning ** SimHVAC: Maximum iterations (20) exceeded for all HVAC loops, at ANNUAL, 03/30 12:30 - 12:45
   **   ~~~   ** The solution for one or more of the Air Loop HVAC systems did not appear to converge
   **   ~~~   ** Air System Named = CENTRAL SYSTEM did not converge for mass flow rate
   **   ~~~   ** Check values should be zero. Most Recent values listed first.
   **   ~~~   ** Demand-to-Supply interface mass flow rate check value iteration history trace: 5.543940E-002,5.543940E-002,5.543940E-002,5.543940E-002,5.543940E-002,5.543940E-002,5.543940E-002,5.543940E-002,5.543940E-002,5.543940E-002,
   **   ~~~   ** Supply-to-demand interface deck 1 mass flow rate check value iteration history trace: 5.543940E-002,5.543940E-002,5.543940E-002,5.543940E-002,5.543940E-002,5.543940E-002,5.543940E-002,5.543940E-002,5.543940E-002,5.543940E-002,
   **   ~~~   ** Air System Named = CENTRAL SYSTEM did not converge for energy
   **   ~~~   ** Check values should be zero. Most Recent values listed first.
   **   ~~~   ** Demand-to-Supply interface energy check value iteration history trace: 1098.384825,1098.384825,1098.384825,1098.384825,1098.384825,1098.384825,1098.384825,1098.384825,1098.384825,1098.384825,
   **   ~~~   ** Supply-to-demand interface deck 1 energy check value iteration history trace: 1998.510758,1998.510758,1998.510757,1998.510757,1998.510757,1998.510757,1998.510757,1998.510757,1998.510757,1998.510757,
   ** Warning ** SimHVAC: Maximum iterations (20) exceeded for all HVAC loops, at ANNUAL, 04/02 13:15 - 13:30
   **   ~~~   ** The solution for one or more of the Air Loop HVAC systems did not appear to converge
   **   ~~~   ** Air System Named = CENTRAL SYSTEM did not converge for mass flow rate
   **   ~~~   ** Check values should be zero. Most Recent values listed first.
   **   ~~~   ** Demand-to-Supply interface mass flow rate check value iteration history trace: 6.182960E-002,6.182960E-002,6.182960E-002,6.182960E-002,6.182960E-002,6.182960E-002,6.182960E-002,6.182960E-002,6.182960E-002,6.182960E-002,
   **   ~~~   ** Supply-to-demand interface deck 1 mass flow rate check value iteration history trace: 6.182960E-002,6.182960E-002,6.182960E-002,6.182960E-002,6.182960E-002,6.182960E-002,6.182960E-002,6.182960E-002,6.182960E-002,6.182960E-002,
   **   ~~~   ** Air System Named = CENTRAL SYSTEM did not converge for energy
   **   ~~~   ** Check values should be zero. Most Recent values listed first.
   **   ~~~   ** Demand-to-Supply interface energy check value iteration history trace: 1225.246848,1225.246848,1225.246848,1225.246848,1225.246848,1225.246848,1225.246848,1225.246848,1225.246848,1225.246848,
   **   ~~~   ** Supply-to-demand interface deck 1 energy check value iteration history trace: 2190.205802,2190.205801,2190.205801,2190.205801,2190.205801,2190.205801,2190.205801,2190.205801,2190.205801,2190.205801,
   ** Warning ** SimHVAC: Maximum iterations (20) exceeded for all HVAC loops, at ANNUAL, 04/07 08:54 - 08:56
   **   ~~~   ** The solution for one or more of the Air Loop HVAC systems did not appear to converge
   **   ~~~   ** Air System Named = CENTRAL SYSTEM did not converge for mass flow rate
   **   ~~~   ** Check values should be zero. Most Recent values listed first.
   **   ~~~   ** Demand-to-Supply interface mass flow rate check value iteration history trace: 5.546918E-002,5.546918E-002,5.546918E-002,5.546918E-002,5.546918E-002,5.546918E-002,5.546918E-002,5.546918E-002,5.546918E-002,5.546918E-002,
   **   ~~~   ** Supply-to-demand interface deck 1 mass flow rate check value iteration history trace: 5.546918E-002,5.546918E-002,5.546918E-002,5.546918E-002,5.546918E-002,5.546918E-002,5.546918E-002,5.546918E-002,5.546918E-002,5.546918E-002,
   **   ~~~   ** Air System Named = CENTRAL SYSTEM did not converge for energy
   **   ~~~   ** Check values should be zero. Most Recent values listed first.
   **   ~~~   ** Demand-to-Supply interface energy check value iteration history trace: 1097.108311,1097.108311,1097.108311,1097.108311,1097.108311,1097.108311,1097.108311,1097.108311,1097.108311,1097.108311,
   **   ~~~   ** Supply-to-demand interface deck 1 energy check value iteration history trace: 2027.946515,2027.946515,2027.946515,2027.946515,2027.946515,2027.946515,2027.946515,2027.946515,2027.946515,2027.946515,
   ** Warning ** SimHVAC: Maximum iterations (20) exceeded for all HVAC loops, at ANNUAL, 04/20 06:45 - 07:00
   **   ~~~   ** The solution for one or more of the Air Loop HVAC systems did not appear to converge
   **   ~~~   ** Air System Named = CENTRAL SYSTEM did not converge for mass flow rate
   **   ~~~   ** Check values should be zero. Most Recent values listed first.
   **   ~~~   ** Demand-to-Supply interface mass flow rate check value iteration history trace: 5.843688E-002,5.843688E-002,5.843688E-002,5.843688E-002,5.843688E-002,5.843688E-002,5.843688E-002,5.843688E-002,5.843688E-002,5.843688E-002,
   **   ~~~   ** Supply-to-demand interface deck 1 mass flow rate check value iteration history trace: 5.843688E-002,5.843688E-002,5.843688E-002,5.843688E-002,5.843688E-002,5.843688E-002,5.843688E-002,5.843688E-002,5.843688E-002,5.843688E-002,
   **   ~~~   ** Air System Named = CENTRAL SYSTEM did not converge for energy
   **   ~~~   ** Check values should be zero. Most Recent values listed first.
   **   ~~~   ** Demand-to-Supply interface energy check value iteration history trace: 1158.350954,1158.350954,1158.350954,1158.350954,1158.350953,1158.350953,1158.350953,1158.350953,1158.350953,1158.350953,
   **   ~~~   ** Supply-to-demand interface deck 1 energy check value iteration history trace: 2053.531078,2053.531078,2053.531078,2053.531078,2053.531078,2053.531078,2053.531078,2053.531078,2053.531078,2053.531078,
   ** Warning ** SimHVAC: Maximum iterations (20) exceeded for all HVAC loops, at ANNUAL, 04/22 08:10 - 08:15
   **   ~~~   ** The solution for one or more of the Air Loop HVAC systems did not appear to converge
   **   ~~~   ** Air System Named = CENTRAL SYSTEM did not converge for mass flow rate
   **   ~~~   ** Check values should be zero. Most Recent values listed first.
   **   ~~~   ** Demand-to-Supply interface mass flow rate check value iteration history trace: 5.440346E-002,5.440346E-002,5.440346E-002,5.440346E-002,5.440346E-002,5.440346E-002,5.440346E-002,5.440346E-002,5.440346E-002,5.440346E-002,
   **   ~~~   ** Supply-to-demand interface deck 1 mass flow rate check value iteration history trace: 5.440346E-002,5.440346E-002,5.440346E-002,5.440346E-002,5.440346E-002,5.440346E-002,5.440346E-002,5.440346E-002,5.440346E-002,5.440346E-002,
   **   ~~~   ** Air System Named = CENTRAL SYSTEM did not converge for energy
   **   ~~~   ** Check values should be zero. Most Recent values listed first.
   **   ~~~   ** Demand-to-Supply interface energy check value iteration history trace: 1086.548877,1086.548877,1086.548877,1086.548877,1086.548877,1086.548877,1086.548877,1086.548877,1086.548877,1086.548877,
   **   ~~~   ** Supply-to-demand interface deck 1 energy check value iteration history trace: 1939.652544,1939.652544,1939.652544,1939.652544,1939.652544,1939.652544,1939.652544,1939.652544,1939.652544,1939.652544,
   ** Warning ** SimHVAC: Maximum iterations (20) exceeded for all HVAC loops, at ANNUAL, 04/24 08:45 - 08:49
   **   ~~~   ** The solution for one or more of the Air Loop HVAC systems did not appear to converge
   **   ~~~   ** Air System Named = CENTRAL SYSTEM did not converge for mass flow rate
   **   ~~~   ** Check values should be zero. Most Recent values listed first.
   **   ~~~   ** Demand-to-Supply interface mass flow rate check value iteration history trace: 5.239275E-002,5.239275E-002,5.239275E-002,5.239275E-002,5.239275E-002,5.239275E-002,5.239275E-002,5.239275E-002,5.239275E-002,5.239275E-002,
   **   ~~~   ** Supply-to-demand interface deck 1 mass flow rate check value iteration history trace: 5.239275E-002,5.239275E-002,5.239275E-002,5.239275E-002,5.239275E-002,5.239275E-002,5.239275E-002,5.239275E-002,5.239275E-002,5.239275E-002,
   **   ~~~   ** Air System Named = CENTRAL SYSTEM did not converge for energy
   **   ~~~   ** Check values should be zero. Most Recent values listed first.
   **   ~~~   ** Demand-to-Supply interface energy check value iteration history trace: 1038.241159,1038.241159,1038.241158,1038.241158,1038.241158,1038.241158,1038.241158,1038.241158,1038.241158,1038.241158,
   **   ~~~   ** Supply-to-demand interface deck 1 energy check value iteration history trace: 1894.640573,1894.640573,1894.640573,1894.640573,1894.640573,1894.640573,1894.640573,1894.640573,1894.640572,1894.640572,
   ** Warning ** SimHVAC: Maximum iterations (20) exceeded for all HVAC loops, at ANNUAL, 04/26 09:45 - 09:50
   **   ~~~   ** The solution for one or more of the Air Loop HVAC systems did not appear to converge
   **   ~~~   ** Air System Named = CENTRAL SYSTEM did not converge for mass flow rate
   **   ~~~   ** Check values should be zero. Most Recent values listed first.
   **   ~~~   ** Demand-to-Supply interface mass flow rate check value iteration history trace: 5.744715E-002,5.744715E-002,5.744715E-002,5.744715E-002,5.744715E-002,5.744715E-002,5.744715E-002,5.744715E-002,5.744715E-002,5.744715E-002,
   **   ~~~   ** Supply-to-demand interface deck 1 mass flow rate check value iteration history trace: 5.744715E-002,5.744715E-002,5.744715E-002,5.744715E-002,5.744715E-002,5.744715E-002,5.744715E-002,5.744715E-002,5.744715E-002,5.744715E-002,
   **   ~~~   ** Air System Named = CENTRAL SYSTEM did not converge for energy
   **   ~~~   ** Check values should be zero. Most Recent values listed first.
   **   ~~~   ** Demand-to-Supply interface energy check value iteration history trace: 1138.404857,1138.404856,1138.404856,1138.404856,1138.404856,1138.404856,1138.404856,1138.404856,1138.404856,1138.404856,
   **   ~~~   ** Supply-to-demand interface deck 1 energy check value iteration history trace: 2028.149588,2028.149588,2028.149588,2028.149588,2028.149588,2028.149587,2028.149587,2028.149587,2028.149587,2028.149587,
   ************* Simulation Error Summary *************
   ** Warning ** The following Report Variables were requested but not generated -- check.rdd file
   **   ~~~   ** Either the IDF did not contain these elements, the variable name is misspelled,
   **   ~~~   ** or the requested variable is an advanced output which requires Output : Diagnostics, DisplayAdvancedReportVariables;
   ************* Key=*, VarName=BASEBOARD TOTAL HEATING ENERGY, Frequency=
   ************* Key=*, VarName=WATER HEATER NATURALGAS ENERGY, Frequency=
   ************* Key=*, VarName=COOLING COIL TOTAL HEATING ENERGY, Frequency=
   ************* There are 34 unused schedules in input.
   ************* There are 388 unused week schedules in input.
   ************* There are 396 unused day schedules in input.
   ************* Use Output:Diagnostics,DisplayUnusedSchedules; to see them.
   *************
   ************* ===== Recurring Error Summary =====
   ************* The following recurring error messages occurred.
   *************
   *************  ** Warning ** "TOTAL HOT WATER LOAD" - Target water temperature should be less than or equal to the hot water temperature error continues...
   *************  **   ~~~   **   This error occurred 61381 total times;
   *************  **   ~~~   **   during Warmup 0 times;
   *************  **   ~~~   **   during Sizing 0 times.
   *************  **   ~~~   **   Max=6.720295  Min=7.870527E-006
   *************
   *************  ** Warning ** SimHVAC: Exceeding Maximum iterations for all HVAC loops, during ANNUAL continues
   *************  **   ~~~   **   This error occurred 13 total times;
   *************  **   ~~~   **   during Warmup 0 times;
   *************  **   ~~~   **   during Sizing 0 times.
   *************
   *************
   ************* ===== Final Error Summary =====
   ************* The following error categories occurred.  Consider correcting or noting.
   ************* Nominally Unused Constructions
   ************* ..The nominally unused constructions warning is provided to alert you to potential conditions that can cause
   ************* ..extra time during simulation. Each construction is calculated by the algorithm indicated in the HeatBalanceAlgorithm
   ************* ..object. You may remove the constructions indicated (when you use the DisplayExtraWarnings option).
   *************
   ************* EnergyPlus Warmup Error Summary. During Warmup: 1 Warning; 0 Severe Errors.
   ************* EnergyPlus Sizing Error Summary. During Sizing: 4 Warning; 0 Severe Errors.
   ************* EnergyPlus Completed Successfully-- 61427 Warning; 0 Severe Errors; Elapsed Time=00hr 01min 40.33sec
