Program Version,EnergyPlus, Version 22.2.0-c249759bad, YMD=2023.09.01 20:06,
   ************* Beginning Zone Sizing Calculations
   ** Warning ** ProcessScheduleInput: Schedule:Constant="ALWAYS ON DISCRETE", Schedule Type Limits Name="ONOFF" not found -- will not be validated
   ** Warning ** Foundation:Kiva="KIVA FOUNDATION", no Interior Horizontal Insulation Material Name defined
   **   ~~~   ** Interior Horizontal Insulation Depth will not be used.
   ** Warning ** CheckUsedConstructions: There are 15 nominally unused constructions in input.
   **   ~~~   ** Each Unused construction is shown.
   ************* Construction=INTERIOR FLOOR
   ************* Construction=INTERIOR WINDOW
   ************* Construction=EXTERIOR DOOR
   ************* Construction=INTERIOR DOOR
   ************* Construction=GABLE CONSTRUCTION
   ************* Construction=CRAWL_FLOOR
   ************* Construction=INSULATED PIPE
   ************* Construction=PLAIN PIPE
   ************* Construction=TDD PIPE
   ************* Construction=TDD DOME
   ************* Construction=TDD DIFFUSER
   ************* Construction=CRAWL WALL
   ************* Construction=CEILING-FLOOR-LAYER
   ************* Construction=SLAB CONSTRUCTION W FULL R10 INSULATION
   ************* Construction=SLAB CONSTRUCTION W FULL R5 INSULATION
   ** Warning ** GetDXCoils: Coil:Heating:DX:SingleSpeed="DX_HEATING_COIL" curve values
   **   ~~~   ** ... Defrost Energy Input Ratio Function of Temperature Curve Name = DEFROSTEIR output is not equal to 1.0 (+ or - 10%) at rated conditions.
   **   ~~~   ** ... Curve output at rated conditions = 0.152
   ************* Beginning System Sizing Calculations
   ************* Beginning Plant Sizing Calculations
   ** Warning ** SizeDXCoil Coil:Cooling:DX:SingleSpeed DX_COOLING_COIL
   **   ~~~   ** ...Gross Rated Total Cooling Capacity [W] will be limited by the maximum rated volume flow per rated total capacity ratio.
   **   ~~~   ** ...DX coil volume flow rate ( m3/s ) = 0.415565
   **   ~~~   ** ...Requested capacity ( W ) = 6481.325
   **   ~~~   ** ...Requested flow/capacity ratio ( m3/s/W ) = 6.411E-005
   **   ~~~   ** ...Maximum flow/capacity ratio ( m3/s/W ) = 6.041E-005
   **   ~~~   ** ...Adjusted capacity ( W ) = 6879.078
   ** Warning ** Coil:WaterHeating:AirToWaterHeatPump:Wrapped "HEAT PUMP WATER HEATER EVAPORATOR": Rated air volume flow rate per watt of rated total water heating capacity is out of range
   **   ~~~   ** Min Rated Vol Flow Per Watt=[4.027E-005], Rated Vol Flow Per Watt=[1.510E-004], Max Rated Vol Flow Per Watt=[8.056E-005]. See Input-Output Reference Manual for valid range.
   ************* SizeFan: : Potential issue with equipment sizing for Fan:OnOff HEAT PUMP WATER HEATER FAN
   **   ~~~   ** User-Specified Maximum Flow Rate [m3/s] = 0.22653
   **   ~~~   ** differs from Design Size Maximum Flow Rate [m3/s] = 7.55250E-002
   **   ~~~   ** This may, or may not, indicate mismatched component sizes.
   **   ~~~   ** Verify that the value entered is intended and is consistent with other components.
   ** Warning ** Water heater = WATER HEATER TANK:  Recovery Efficiency and Energy Factor could not be calculated during the test for standard ratings
   **   ~~~   ** Setpoint was never recovered and/or heater never turned on
   ** Warning ** Check input. Pump nominal power or motor efficiency is set to 0, for pump=MAINS PRESSURE
   ** Warning ** Output:Meter: invalid Key Name="ELECTRIC_RANGE:INTERIOREQUIPMENT:ELECTRICITY" - not found.
   ** Warning ** Output:Meter: invalid Key Name="ELECTRIC_DRYER:INTERIOREQUIPMENT:ELECTRICITY" - not found.
   ** Warning ** Output:Meter: invalid Key Name="HEATRECOVERY:ELECTRICITY" - not found.
   ** Warning ** Output:Meter: invalid Key Name="HEATING:NATURALGAS" - not found.
   ** Warning ** Output:Meter: invalid Key Name="WATERSYSTEMS:NATURALGAS" - not found.
   ** Warning ** Output:Meter: invalid Key Name="PROPANE:FACILITY" - not found.
   ** Warning ** Output:Meter: invalid Key Name="HEATING:PROPANE" - not found.
   ************* Testing Individual Branch Integrity
   ************* All Branches passed integrity testing
   ************* Testing Individual Supply Air Path Integrity
   ************* All Supply Air Paths passed integrity testing
   ************* Testing Individual Return Air Path Integrity
   ************* All Return Air Paths passed integrity testing
   ************* No node connection errors were found.
   ************* Beginning Simulation
   ** Warning ** AirflowNetwork::Solver::validate_distribution: Heat pump water heater is simulated along with an AirflowNetwork but is not included in the AirflowNetwork.
   ** Warning ** CalcEquipmentFlowRates: "TOTAL HOT WATER LOAD" - Target water temperature is greater than the hot water temperature by (4.55 C)
   **   ~~~   **  Environment=EXTREME_WINTER, at Simulation time=01/27 07:00 - 07:15
   **   ~~~   ** ...target water temperature     = 53.33 C
   **   ~~~   ** ...hot water temperature        = 48.78 C
   **   ~~~   ** ...Target water temperature should be less than or equal to the hot water temperature. Verify temperature setpoints and schedules.
   ** Warning ** SimHVAC: Maximum iterations (20) exceeded for all HVAC loops, at EXTREME_WINTER, 01/27 16:53 - 17:00
   **   ~~~   ** The solution for one or more of the Air Loop HVAC systems did not appear to converge
   **   ~~~   ** Air System Named = CENTRAL SYSTEM did not converge for mass flow rate
   **   ~~~   ** Check values should be zero. Most Recent values listed first.
   **   ~~~   ** Demand-to-Supply interface mass flow rate check value iteration history trace: 9.160897E-002,9.160897E-002,9.160897E-002,9.160897E-002,9.160897E-002,9.160897E-002,9.160897E-002,9.160897E-002,9.160897E-002,9.160897E-002,
   **   ~~~   ** Supply-to-demand interface deck 1 mass flow rate check value iteration history trace: 9.160897E-002,9.160897E-002,9.160897E-002,9.160897E-002,9.160897E-002,9.160897E-002,9.160897E-002,9.160897E-002,9.160897E-002,9.160897E-002,
   **   ~~~   ** Air System Named = CENTRAL SYSTEM did not converge for energy
   **   ~~~   ** Check values should be zero. Most Recent values listed first.
   **   ~~~   ** Demand-to-Supply interface energy check value iteration history trace: 1806.331362,1806.331362,1806.331361,1806.331361,1806.331361,1806.331361,1806.331361,1806.331361,1806.331361,1806.331361,
   **   ~~~   ** Supply-to-demand interface deck 1 energy check value iteration history trace: 2791.917105,2791.917104,2791.917104,2791.917104,2791.917104,2791.917104,2791.917104,2791.917103,2791.917103,2791.917103,
   ** Warning ** SimHVAC: Maximum iterations (20) exceeded for all HVAC loops, at ANNUAL, 01/15 17:08 - 17:15
   **   ~~~   ** The solution for one or more of the Air Loop HVAC systems did not appear to converge
   **   ~~~   ** Air System Named = CENTRAL SYSTEM did not converge for mass flow rate
   **   ~~~   ** Check values should be zero. Most Recent values listed first.
   **   ~~~   ** Demand-to-Supply interface mass flow rate check value iteration history trace: 6.927568E-002,6.927568E-002,6.927568E-002,6.927568E-002,6.927568E-002,6.927568E-002,6.927568E-002,6.927568E-002,6.927568E-002,6.927568E-002,
   **   ~~~   ** Supply-to-demand interface deck 1 mass flow rate check value iteration history trace: 6.927568E-002,6.927568E-002,6.927568E-002,6.927568E-002,6.927568E-002,6.927568E-002,6.927568E-002,6.927568E-002,6.927568E-002,6.927568E-002,
   **   ~~~   ** Air System Named = CENTRAL SYSTEM did not converge for energy
   **   ~~~   ** Check values should be zero. Most Recent values listed first.
   **   ~~~   ** Demand-to-Supply interface energy check value iteration history trace: 1377.529934,1377.529934,1377.529934,1377.529934,1377.529934,1377.529933,1377.529933,1377.529933,1377.529933,1377.529933,
   **   ~~~   ** Supply-to-demand interface deck 1 energy check value iteration history trace: 2333.030996,2333.030996,2333.030996,2333.030996,2333.030996,2333.030996,2333.030996,2333.030996,2333.030995,2333.030995,
   ** Warning ** SimHVAC: Maximum iterations (20) exceeded for all HVAC loops, at ANNUAL, 01/21 10:15 - 10:30
   **   ~~~   ** The solution for one or more of the Air Loop HVAC systems did not appear to converge
   **   ~~~   ** Air System Named = CENTRAL SYSTEM did not converge for mass flow rate
   **   ~~~   ** Check values should be zero. Most Recent values listed first.
   **   ~~~   ** Demand-to-Supply interface mass flow rate check value iteration history trace: 9.698563E-002,9.698563E-002,9.698563E-002,9.698563E-002,9.698563E-002,9.698563E-002,9.698563E-002,9.698563E-002,9.698563E-002,9.698563E-002,
   **   ~~~   ** Supply-to-demand interface deck 1 mass flow rate check value iteration history trace: 9.698563E-002,9.698563E-002,9.698563E-002,9.698563E-002,9.698563E-002,9.698563E-002,9.698563E-002,9.698563E-002,9.698563E-002,9.698563E-002,
   **   ~~~   ** Air System Named = CENTRAL SYSTEM did not converge for energy
   **   ~~~   ** Check values should be zero. Most Recent values listed first.
   **   ~~~   ** Demand-to-Supply interface energy check value iteration history trace: 1921.896256,1921.896256,1921.896256,1921.896255,1921.896255,1921.896255,1921.896255,1921.896255,1921.896255,1921.896255,
   **   ~~~   ** Supply-to-demand interface deck 1 energy check value iteration history trace: 2956.610107,2956.610106,2956.610106,2956.610106,2956.610106,2956.610106,2956.610105,2956.610105,2956.610105,2956.610105,
   ** Warning ** SimHVAC: Maximum iterations (20) exceeded for all HVAC loops, at ANNUAL, 01/21 21:30 - 21:45
   **   ~~~   ** The solution for one or more of the Air Loop HVAC systems did not appear to converge
   **   ~~~   ** Air System Named = CENTRAL SYSTEM did not converge for mass flow rate
   **   ~~~   ** Check values should be zero. Most Recent values listed first.
   **   ~~~   ** Demand-to-Supply interface mass flow rate check value iteration history trace: 0.111331,0.111331,0.111331,0.111331,0.111331,0.111331,0.111331,0.111331,0.111331,0.111331,
   **   ~~~   ** Supply-to-demand interface deck 1 mass flow rate check value iteration history trace: 0.111331,0.111331,0.111331,0.111331,0.111331,0.111331,0.111331,0.111331,0.111331,0.111331,
   **   ~~~   ** Air System Named = CENTRAL SYSTEM did not converge for energy
   **   ~~~   ** Check values should be zero. Most Recent values listed first.
   **   ~~~   ** Demand-to-Supply interface energy check value iteration history trace: 2199.780541,2199.780540,2199.780540,2199.780540,2199.780540,2199.780540,2199.780540,2199.780540,2199.780539,2199.780539,
   **   ~~~   ** Supply-to-demand interface deck 1 energy check value iteration history trace: 3320.774281,3320.774281,3320.774281,3320.774281,3320.774280,3320.774280,3320.774280,3320.774280,3320.774279,3320.774279,
   ** Warning ** SimHVAC: Maximum iterations (20) exceeded for all HVAC loops, at ANNUAL, 02/17 11:15 - 11:19
   **   ~~~   ** The solution for one or more of the Air Loop HVAC systems did not appear to converge
   **   ~~~   ** Air System Named = CENTRAL SYSTEM did not converge for mass flow rate
   **   ~~~   ** Check values should be zero. Most Recent values listed first.
   **   ~~~   ** Demand-to-Supply interface mass flow rate check value iteration history trace: 6.930371E-002,6.930371E-002,6.930371E-002,6.930371E-002,6.930371E-002,6.930371E-002,6.930371E-002,6.930371E-002,6.930371E-002,6.930371E-002,
   **   ~~~   ** Supply-to-demand interface deck 1 mass flow rate check value iteration history trace: 6.930371E-002,6.930371E-002,6.930371E-002,6.930371E-002,6.930371E-002,6.930371E-002,6.930371E-002,6.930371E-002,6.930371E-002,6.930371E-002,
   **   ~~~   ** Air System Named = CENTRAL SYSTEM did not converge for energy
   **   ~~~   ** Check values should be zero. Most Recent values listed first.
   **   ~~~   ** Demand-to-Supply interface energy check value iteration history trace: 1366.339924,1366.339924,1366.339924,1366.339924,1366.339924,1366.339924,1366.339923,1366.339923,1366.339923,1366.339923,
   **   ~~~   ** Supply-to-demand interface deck 1 energy check value iteration history trace: 2431.072290,2431.072290,2431.072289,2431.072289,2431.072289,2431.072289,2431.072289,2431.072289,2431.072289,2431.072289,
   ** Warning ** SimHVAC: Maximum iterations (20) exceeded for all HVAC loops, at ANNUAL, 03/07 02:30 - 02:45
   **   ~~~   ** The solution for one or more of the Air Loop HVAC systems did not appear to converge
   **   ~~~   ** Air System Named = CENTRAL SYSTEM did not converge for mass flow rate
   **   ~~~   ** Check values should be zero. Most Recent values listed first.
   **   ~~~   ** Demand-to-Supply interface mass flow rate check value iteration history trace: 4.660384E-002,4.660384E-002,4.660384E-002,4.660384E-002,4.660384E-002,4.660384E-002,4.660384E-002,4.660384E-002,4.660384E-002,4.660384E-002,
   **   ~~~   ** Supply-to-demand interface deck 1 mass flow rate check value iteration history trace: 4.660384E-002,4.660384E-002,4.660384E-002,4.660384E-002,4.660384E-002,4.660384E-002,4.660384E-002,4.660384E-002,4.660384E-002,4.660384E-002,
   **   ~~~   ** Air System Named = CENTRAL SYSTEM did not converge for energy
   **   ~~~   ** Check values should be zero. Most Recent values listed first.
   **   ~~~   ** Demand-to-Supply interface energy check value iteration history trace: 873.521095,873.521095,873.521095,873.521095,873.521095,873.521095,873.521095,873.521095,873.521095,873.521095,
   **   ~~~   ** Supply-to-demand interface deck 1 energy check value iteration history trace: 1565.260679,1565.260679,1565.260679,1565.260678,1565.260678,1565.260678,1565.260678,1565.260678,1565.260678,1565.260678,
   ** Warning ** SimHVAC: Maximum iterations (20) exceeded for all HVAC loops, at ANNUAL, 03/14 18:15 - 18:20
   **   ~~~   ** The solution for one or more of the Air Loop HVAC systems did not appear to converge
   **   ~~~   ** Air System Named = CENTRAL SYSTEM did not converge for mass flow rate
   **   ~~~   ** Check values should be zero. Most Recent values listed first.
   **   ~~~   ** Demand-to-Supply interface mass flow rate check value iteration history trace: 7.702832E-002,7.702832E-002,7.702832E-002,7.702832E-002,7.702832E-002,7.702832E-002,7.702832E-002,7.702832E-002,7.702832E-002,7.702832E-002,
   **   ~~~   ** Supply-to-demand interface deck 1 mass flow rate check value iteration history trace: 7.702832E-002,7.702832E-002,7.702832E-002,7.702832E-002,7.702832E-002,7.702832E-002,7.702832E-002,7.702832E-002,7.702832E-002,7.702832E-002,
   **   ~~~   ** Air System Named = CENTRAL SYSTEM did not converge for energy
   **   ~~~   ** Check values should be zero. Most Recent values listed first.
   **   ~~~   ** Demand-to-Supply interface energy check value iteration history trace: 1558.096801,1558.096801,1558.096801,1558.096801,1558.096801,1558.096801,1558.096800,1558.096800,1558.096800,1558.096800,
   **   ~~~   ** Supply-to-demand interface deck 1 energy check value iteration history trace: 2593.421163,2593.421163,2593.421163,2593.421163,2593.421163,2593.421163,2593.421162,2593.421162,2593.421162,2593.421162,
   ** Warning ** SimHVAC: Maximum iterations (20) exceeded for all HVAC loops, at ANNUAL, 03/17 07:30 - 07:35
   **   ~~~   ** The solution for one or more of the Air Loop HVAC systems did not appear to converge
   **   ~~~   ** Air System Named = CENTRAL SYSTEM did not converge for mass flow rate
   **   ~~~   ** Check values should be zero. Most Recent values listed first.
   **   ~~~   ** Demand-to-Supply interface mass flow rate check value iteration history trace: 6.292381E-002,6.292381E-002,6.292381E-002,6.292381E-002,6.292381E-002,6.292381E-002,6.292381E-002,6.292381E-002,6.292381E-002,6.292381E-002,
   **   ~~~   ** Supply-to-demand interface deck 1 mass flow rate check value iteration history trace: 6.292381E-002,6.292381E-002,6.292381E-002,6.292381E-002,6.292381E-002,6.292381E-002,6.292381E-002,6.292381E-002,6.292381E-002,6.292381E-002,
   **   ~~~   ** Air System Named = CENTRAL SYSTEM did not converge for energy
   **   ~~~   ** Check values should be zero. Most Recent values listed first.
   **   ~~~   ** Demand-to-Supply interface energy check value iteration history trace: 1241.368002,1241.368002,1241.368002,1241.368002,1241.368002,1241.368002,1241.368002,1241.368002,1241.368002,1241.368002,
   **   ~~~   ** Supply-to-demand interface deck 1 energy check value iteration history trace: 2120.366788,2120.366788,2120.366788,2120.366788,2120.366788,2120.366788,2120.366787,2120.366787,2120.366787,2120.366787,
   ** Warning ** Temperature out of range [-100. to 200.] (PsyPsatFnTemp)
   **   ~~~   **  Routine=PsyTwbFnTdbWPb, Environment=ANNUAL, at Simulation time=03/27 17:15 - 17:19
   **   ~~~   **  Input Temperature=-140.06
   ** Warning ** SimHVAC: Maximum iterations (20) exceeded for all HVAC loops, at ANNUAL, 04/01 21:00 - 21:15
   **   ~~~   ** The solution for one or more of the Air Loop HVAC systems did not appear to converge
   **   ~~~   ** Air System Named = CENTRAL SYSTEM did not converge for mass flow rate
   **   ~~~   ** Check values should be zero. Most Recent values listed first.
   **   ~~~   ** Demand-to-Supply interface mass flow rate check value iteration history trace: 6.245017E-002,6.245017E-002,6.245017E-002,6.245017E-002,6.245017E-002,6.245017E-002,6.245017E-002,6.245017E-002,6.245017E-002,6.245017E-002,
   **   ~~~   ** Supply-to-demand interface deck 1 mass flow rate check value iteration history trace: 6.245017E-002,6.245017E-002,6.245017E-002,6.245017E-002,6.245017E-002,6.245017E-002,6.245017E-002,6.245017E-002,6.245017E-002,6.245017E-002,
   **   ~~~   ** Air System Named = CENTRAL SYSTEM did not converge for energy
   **   ~~~   ** Check values should be zero. Most Recent values listed first.
   **   ~~~   ** Demand-to-Supply interface energy check value iteration history trace: 1222.230575,1222.230575,1222.230575,1222.230575,1222.230575,1222.230575,1222.230575,1222.230575,1222.230575,1222.230575,
   **   ~~~   ** Supply-to-demand interface deck 1 energy check value iteration history trace: 2193.315655,2193.315655,2193.315654,2193.315654,2193.315654,2193.315654,2193.315654,2193.315654,2193.315654,2193.315654,
   ** Warning ** SimHVAC: Maximum iterations (20) exceeded for all HVAC loops, at ANNUAL, 04/15 09:03 - 09:06
   **   ~~~   ** The solution for one or more of the Air Loop HVAC systems did not appear to converge
   **   ~~~   ** Air System Named = CENTRAL SYSTEM did not converge for mass flow rate
   **   ~~~   ** Check values should be zero. Most Recent values listed first.
   **   ~~~   ** Demand-to-Supply interface mass flow rate check value iteration history trace: 8.205092E-002,8.205092E-002,8.205092E-002,8.205092E-002,8.205092E-002,8.205092E-002,8.205092E-002,8.205092E-002,8.205092E-002,8.205092E-002,
   **   ~~~   ** Supply-to-demand interface deck 1 mass flow rate check value iteration history trace: 8.205092E-002,8.205092E-002,8.205092E-002,8.205092E-002,8.205092E-002,8.205092E-002,8.205092E-002,8.205092E-002,8.205092E-002,8.205092E-002,
   **   ~~~   ** Air System Named = CENTRAL SYSTEM did not converge for energy
   **   ~~~   ** Check values should be zero. Most Recent values listed first.
   **   ~~~   ** Demand-to-Supply interface energy check value iteration history trace: 1619.891749,1619.891749,1619.891749,1619.891749,1619.891749,1619.891748,1619.891748,1619.891748,1619.891748,1619.891748,
   **   ~~~   ** Supply-to-demand interface deck 1 energy check value iteration history trace: 2779.105629,2779.105629,2779.105629,2779.105629,2779.105628,2779.105628,2779.105628,2779.105628,2779.105628,2779.105628,
   ** Warning ** SimHVAC: Maximum iterations (20) exceeded for all HVAC loops, at ANNUAL, 10/22 11:30 - 11:45
   **   ~~~   ** The solution for one or more of the Air Loop HVAC systems did not appear to converge
   **   ~~~   ** Air System Named = CENTRAL SYSTEM did not converge for mass flow rate
   **   ~~~   ** Check values should be zero. Most Recent values listed first.
   **   ~~~   ** Demand-to-Supply interface mass flow rate check value iteration history trace: 5.503610E-002,5.503610E-002,5.503610E-002,5.503610E-002,5.503610E-002,5.503610E-002,5.503610E-002,5.503610E-002,5.503610E-002,5.503610E-002,
   **   ~~~   ** Supply-to-demand interface deck 1 mass flow rate check value iteration history trace: 5.503610E-002,5.503610E-002,5.503610E-002,5.503610E-002,5.503610E-002,5.503610E-002,5.503610E-002,5.503610E-002,5.503610E-002,5.503610E-002,
   **   ~~~   ** Air System Named = CENTRAL SYSTEM did not converge for energy
   **   ~~~   ** Check values should be zero. Most Recent values listed first.
   **   ~~~   ** Demand-to-Supply interface energy check value iteration history trace: 1298.299950,1298.299950,1298.299950,1298.299950,1298.299951,1298.299951,1298.299951,1298.299951,1298.299951,1298.299951,
   **   ~~~   ** Supply-to-demand interface deck 1 energy check value iteration history trace: 609.378600,609.378600,609.378600,609.378600,609.378600,609.378600,609.378600,609.378600,609.378600,609.378600,
   ** Warning ** SimHVAC: Maximum iterations (20) exceeded for all HVAC loops, at ANNUAL, 10/24 13:00 - 13:15
   **   ~~~   ** The solution for one or more of the Air Loop HVAC systems did not appear to converge
   **   ~~~   ** Air System Named = CENTRAL SYSTEM did not converge for mass flow rate
   **   ~~~   ** Check values should be zero. Most Recent values listed first.
   **   ~~~   ** Demand-to-Supply interface mass flow rate check value iteration history trace: 2.159573E-002,2.159573E-002,2.159573E-002,2.159573E-002,2.159573E-002,2.159573E-002,2.159573E-002,2.159573E-002,2.159573E-002,2.159573E-002,
   **   ~~~   ** Supply-to-demand interface deck 1 mass flow rate check value iteration history trace: 2.159573E-002,2.159573E-002,2.159573E-002,2.159573E-002,2.159573E-002,2.159573E-002,2.159573E-002,2.159573E-002,2.159573E-002,2.159573E-002,
   **   ~~~   ** Air System Named = CENTRAL SYSTEM did not converge for energy
   **   ~~~   ** Check values should be zero. Most Recent values listed first.
   **   ~~~   ** Demand-to-Supply interface energy check value iteration history trace: 506.574006,506.574006,506.574006,506.574006,506.574006,506.574006,506.574006,506.574006,506.574006,506.574006,
   **   ~~~   ** Supply-to-demand interface deck 1 energy check value iteration history trace: 246.378890,246.378890,246.378890,246.378890,246.378890,246.378890,246.378890,246.378890,246.378890,246.378891,
   ** Warning ** SimHVAC: Maximum iterations (20) exceeded for all HVAC loops, at ANNUAL, 11/03 10:30 - 10:45
   **   ~~~   ** The solution for one or more of the Air Loop HVAC systems did not appear to converge
   **   ~~~   ** Air System Named = CENTRAL SYSTEM did not converge for mass flow rate
   **   ~~~   ** Check values should be zero. Most Recent values listed first.
   **   ~~~   ** Demand-to-Supply interface mass flow rate check value iteration history trace: 7.145015E-002,7.145015E-002,7.145015E-002,7.145015E-002,7.145015E-002,7.145015E-002,7.145015E-002,7.145015E-002,7.145015E-002,7.145015E-002,
   **   ~~~   ** Supply-to-demand interface deck 1 mass flow rate check value iteration history trace: 7.145015E-002,7.145015E-002,7.145015E-002,7.145015E-002,7.145015E-002,7.145015E-002,7.145015E-002,7.145015E-002,7.145015E-002,7.145015E-002,
   **   ~~~   ** Air System Named = CENTRAL SYSTEM did not converge for energy
   **   ~~~   ** Check values should be zero. Most Recent values listed first.
   **   ~~~   ** Demand-to-Supply interface energy check value iteration history trace: 1413.737701,1413.737701,1413.737701,1413.737701,1413.737700,1413.737700,1413.737700,1413.737699,1413.737699,1413.737699,
   **   ~~~   ** Supply-to-demand interface deck 1 energy check value iteration history trace: 2446.089843,2446.089843,2446.089842,2446.089842,2446.089841,2446.089841,2446.089840,2446.089840,2446.089839,2446.089839,
   **   ~~~   ** Node named ZONE INLET NODE shows oscillating temperatures across iterations with a repeated value of 34.069885
   **   ~~~   ** Node named ZONE INLET NODE temperature [C] iteration history trace (most recent first): 34.069885,34.069884,34.069884,34.069884,34.069884,34.069883,34.069883,34.069883,34.069883,34.069882,
   ** Warning ** SimHVAC: Maximum iterations (20) exceeded for all HVAC loops, at ANNUAL, 11/05 10:04 - 10:08
   **   ~~~   ** The solution for one or more of the Air Loop HVAC systems did not appear to converge
   **   ~~~   ** Air System Named = CENTRAL SYSTEM did not converge for mass flow rate
   **   ~~~   ** Check values should be zero. Most Recent values listed first.
   **   ~~~   ** Demand-to-Supply interface mass flow rate check value iteration history trace: 7.301034E-002,7.301034E-002,7.301034E-002,7.301034E-002,7.301034E-002,7.301034E-002,7.301034E-002,7.301034E-002,7.301034E-002,7.301034E-002,
   **   ~~~   ** Supply-to-demand interface deck 1 mass flow rate check value iteration history trace: 7.301034E-002,7.301034E-002,7.301034E-002,7.301034E-002,7.301034E-002,7.301034E-002,7.301034E-002,7.301034E-002,7.301034E-002,7.301034E-002,
   **   ~~~   ** Air System Named = CENTRAL SYSTEM did not converge for energy
   **   ~~~   ** Check values should be zero. Most Recent values listed first.
   **   ~~~   ** Demand-to-Supply interface energy check value iteration history trace: 1439.535903,1439.535903,1439.535903,1439.535903,1439.535903,1439.535903,1439.535903,1439.535903,1439.535903,1439.535903,
   **   ~~~   ** Supply-to-demand interface deck 1 energy check value iteration history trace: 2529.790718,2529.790718,2529.790718,2529.790718,2529.790718,2529.790718,2529.790717,2529.790717,2529.790717,2529.790717,
   ************* Simulation Error Summary *************
   ** Warning ** The following Report Variables were requested but not generated -- check.rdd file
   **   ~~~   ** Either the IDF did not contain these elements, the variable name is misspelled,
   **   ~~~   ** or the requested variable is an advanced output which requires Output : Diagnostics, DisplayAdvancedReportVariables;
   ************* Key=*, VarName=BASEBOARD TOTAL HEATING ENERGY, Frequency=
   ************* Key=*, VarName=WATER HEATER NATURALGAS ENERGY, Frequency=
   ************* Key=*, VarName=COOLING COIL TOTAL HEATING ENERGY, Frequency=
   ************* There are 34 unused schedules in input.
   ************* There are 388 unused week schedules in input.
   ************* There are 396 unused day schedules in input.
   ************* Use Output:Diagnostics,DisplayUnusedSchedules; to see them.
   *************
   ************* ===== Recurring Error Summary =====
   ************* The following recurring error messages occurred.
   *************
   *************  ** Warning ** "TOTAL HOT WATER LOAD" - Target water temperature should be less than or equal to the hot water temperature error continues...
   *************  **   ~~~   **   This error occurred 140283 total times;
   *************  **   ~~~   **   during Warmup 0 times;
   *************  **   ~~~   **   during Sizing 0 times.
   *************  **   ~~~   **   Max=12.476663  Min=1.875436E-004
   *************
   *************  ** Warning ** Temperature out of range [-100. to 200.] (PsyPsatFnTemp)
   *************  **   ~~~   **   This error occurred 1 total times;
   *************  **   ~~~   **   during Warmup 0 times;
   *************  **   ~~~   **   during Sizing 0 times.
   *************  **   ~~~   **   Max=-140.060295 C  Min=-140.060295 C
   *************
   *************  ** Warning ** SimHVAC: Exceeding Maximum iterations for all HVAC loops, during ANNUAL continues
   *************  **   ~~~   **   This error occurred 9 total times;
   *************  **   ~~~   **   during Warmup 0 times;
   *************  **   ~~~   **   during Sizing 0 times.
   *************
   *************
   ************* ===== Final Error Summary =====
   ************* The following error categories occurred.  Consider correcting or noting.
   ************* Nominally Unused Constructions
   ************* ..The nominally unused constructions warning is provided to alert you to potential conditions that can cause
   ************* ..extra time during simulation. Each construction is calculated by the algorithm indicated in the HeatBalanceAlgorithm
   ************* ..object. You may remove the constructions indicated (when you use the DisplayExtraWarnings option).
   *************
   ************* EnergyPlus Warmup Error Summary. During Warmup: 1 Warning; 0 Severe Errors.
   ************* EnergyPlus Sizing Error Summary. During Sizing: 4 Warning; 0 Severe Errors.
   ************* EnergyPlus Completed Successfully-- 140325 Warning; 0 Severe Errors; Elapsed Time=00hr 01min 27.88sec
