Program Version,EnergyPlus, Version 22.2.0-c249759bad, YMD=2023.09.01 14:50,
   ************* Beginning Zone Sizing Calculations
   ** Warning ** ProcessScheduleInput: Schedule:Constant="ALWAYS ON DISCRETE", Schedule Type Limits Name="ONOFF" not found -- will not be validated
   ** Warning ** Foundation:Kiva="KIVA FOUNDATION", no Interior Horizontal Insulation Material Name defined
   **   ~~~   ** Interior Horizontal Insulation Depth will not be used.
   ** Warning ** CheckUsedConstructions: There are 15 nominally unused constructions in input.
   **   ~~~   ** Each Unused construction is shown.
   ************* Construction=INTERIOR FLOOR
   ************* Construction=INTERIOR WINDOW
   ************* Construction=EXTERIOR DOOR
   ************* Construction=INTERIOR DOOR
   ************* Construction=GABLE CONSTRUCTION
   ************* Construction=CRAWL_FLOOR
   ************* Construction=INSULATED PIPE
   ************* Construction=PLAIN PIPE
   ************* Construction=TDD PIPE
   ************* Construction=TDD DOME
   ************* Construction=TDD DIFFUSER
   ************* Construction=CRAWL WALL
   ************* Construction=CEILING-FLOOR-LAYER
   ************* Construction=SLAB CONSTRUCTION W FULL R10 INSULATION
   ************* Construction=SLAB CONSTRUCTION W FULL R5 INSULATION
   ** Warning ** GetDXCoils: Coil:Heating:DX:SingleSpeed="DX_HEATING_COIL" curve values
   **   ~~~   ** ... Defrost Energy Input Ratio Function of Temperature Curve Name = DEFROSTEIR output is not equal to 1.0 (+ or - 10%) at rated conditions.
   **   ~~~   ** ... Curve output at rated conditions = 0.152
   ************* Beginning System Sizing Calculations
   ************* Beginning Plant Sizing Calculations
   ** Warning ** Coil:WaterHeating:AirToWaterHeatPump:Wrapped "HEAT PUMP WATER HEATER EVAPORATOR": Rated air volume flow rate per watt of rated total water heating capacity is out of range
   **   ~~~   ** Min Rated Vol Flow Per Watt=[4.027E-005], Rated Vol Flow Per Watt=[1.386E-004], Max Rated Vol Flow Per Watt=[8.056E-005]. See Input-Output Reference Manual for valid range.
   ** Warning ** Water heater = WATER HEATER TANK:  Recovery Efficiency and Energy Factor could not be calculated during the test for standard ratings
   **   ~~~   ** Setpoint was never recovered and/or heater never turned on
   ** Warning ** Check input. Pump nominal power or motor efficiency is set to 0, for pump=MAINS PRESSURE
   ** Warning ** Output:Meter: invalid Key Name="ELECTRIC_RANGE:INTERIOREQUIPMENT:ELECTRICITY" - not found.
   ** Warning ** Output:Meter: invalid Key Name="ELECTRIC_DRYER:INTERIOREQUIPMENT:ELECTRICITY" - not found.
   ** Warning ** Output:Meter: invalid Key Name="HEATRECOVERY:ELECTRICITY" - not found.
   ** Warning ** Output:Meter: invalid Key Name="HEATING:NATURALGAS" - not found.
   ** Warning ** Output:Meter: invalid Key Name="WATERSYSTEMS:NATURALGAS" - not found.
   ** Warning ** Output:Meter: invalid Key Name="PROPANE:FACILITY" - not found.
   ** Warning ** Output:Meter: invalid Key Name="HEATING:PROPANE" - not found.
   ************* Testing Individual Branch Integrity
   ************* All Branches passed integrity testing
   ************* Testing Individual Supply Air Path Integrity
   ************* All Supply Air Paths passed integrity testing
   ************* Testing Individual Return Air Path Integrity
   ************* All Return Air Paths passed integrity testing
   ************* No node connection errors were found.
   ************* Beginning Simulation
   ** Warning ** AirflowNetwork::Solver::validate_distribution: Heat pump water heater is simulated along with an AirflowNetwork but is not included in the AirflowNetwork.
   ** Warning ** CalcEquipmentFlowRates: "TOTAL HOT WATER LOAD" - Target water temperature is greater than the hot water temperature by (1.65 C)
   **   ~~~   **  Environment=EXTREME_WINTER, at Simulation time=12/15 06:00 - 06:15
   **   ~~~   ** ...target water temperature     = 53.33 C
   **   ~~~   ** ...hot water temperature        = 51.69 C
   **   ~~~   ** ...Target water temperature should be less than or equal to the hot water temperature. Verify temperature setpoints and schedules.
   ** Warning ** SimHVAC: Maximum iterations (20) exceeded for all HVAC loops, at ANNUAL, 01/14 11:00 - 11:15
   **   ~~~   ** The solution for one or more of the Air Loop HVAC systems did not appear to converge
   **   ~~~   ** Air System Named = CENTRAL SYSTEM did not converge for mass flow rate
   **   ~~~   ** Check values should be zero. Most Recent values listed first.
   **   ~~~   ** Demand-to-Supply interface mass flow rate check value iteration history trace: 6.811464E-002,6.811464E-002,6.811464E-002,6.811464E-002,6.811464E-002,6.811464E-002,6.811464E-002,6.811464E-002,6.811464E-002,6.811464E-002,
   **   ~~~   ** Supply-to-demand interface deck 1 mass flow rate check value iteration history trace: 6.811464E-002,6.811464E-002,6.811464E-002,6.811464E-002,6.811464E-002,6.811464E-002,6.811464E-002,6.811464E-002,6.811464E-002,6.811464E-002,
   **   ~~~   ** Air System Named = CENTRAL SYSTEM did not converge for energy
   **   ~~~   ** Check values should be zero. Most Recent values listed first.
   **   ~~~   ** Demand-to-Supply interface energy check value iteration history trace: 1341.858220,1341.858220,1341.858220,1341.858220,1341.858220,1341.858219,1341.858219,1341.858219,1341.858219,1341.858219,
   **   ~~~   ** Supply-to-demand interface deck 1 energy check value iteration history trace: 2336.685710,2336.685710,2336.685710,2336.685710,2336.685710,2336.685709,2336.685709,2336.685709,2336.685709,2336.685709,
   ** Warning ** SimHVAC: Maximum iterations (20) exceeded for all HVAC loops, at ANNUAL, 04/08 09:15 - 09:20
   **   ~~~   ** The solution for one or more of the Air Loop HVAC systems did not appear to converge
   **   ~~~   ** Air System Named = CENTRAL SYSTEM did not converge for mass flow rate
   **   ~~~   ** Check values should be zero. Most Recent values listed first.
   **   ~~~   ** Demand-to-Supply interface mass flow rate check value iteration history trace: 8.566644E-002,8.566644E-002,8.566644E-002,8.566644E-002,8.566644E-002,8.566644E-002,8.566644E-002,8.566644E-002,8.566644E-002,8.566644E-002,
   **   ~~~   ** Supply-to-demand interface deck 1 mass flow rate check value iteration history trace: 8.566644E-002,8.566644E-002,8.566644E-002,8.566644E-002,8.566644E-002,8.566644E-002,8.566644E-002,8.566644E-002,8.566644E-002,8.566644E-002,
   **   ~~~   ** Air System Named = CENTRAL SYSTEM did not converge for energy
   **   ~~~   ** Check values should be zero. Most Recent values listed first.
   **   ~~~   ** Demand-to-Supply interface energy check value iteration history trace: 1690.531986,1690.531986,1690.531986,1690.531986,1690.531986,1690.531986,1690.531985,1690.531985,1690.531985,1690.531985,
   **   ~~~   ** Supply-to-demand interface deck 1 energy check value iteration history trace: 3003.305385,3003.305385,3003.305385,3003.305385,3003.305385,3003.305385,3003.305384,3003.305384,3003.305384,3003.305384,
   ** Warning ** SimHVAC: Maximum iterations (20) exceeded for all HVAC loops, at ANNUAL, 04/14 16:30 - 16:34
   **   ~~~   ** The solution for one or more of the Air Loop HVAC systems did not appear to converge
   **   ~~~   ** Air System Named = CENTRAL SYSTEM did not converge for mass flow rate
   **   ~~~   ** Check values should be zero. Most Recent values listed first.
   **   ~~~   ** Demand-to-Supply interface mass flow rate check value iteration history trace: 8.350489E-002,8.350489E-002,8.350489E-002,8.350489E-002,8.350489E-002,8.350489E-002,8.350489E-002,8.350489E-002,8.350489E-002,8.350489E-002,
   **   ~~~   ** Supply-to-demand interface deck 1 mass flow rate check value iteration history trace: 8.350489E-002,8.350489E-002,8.350489E-002,8.350489E-002,8.350489E-002,8.350489E-002,8.350489E-002,8.350489E-002,8.350489E-002,8.350489E-002,
   **   ~~~   ** Air System Named = CENTRAL SYSTEM did not converge for energy
   **   ~~~   ** Check values should be zero. Most Recent values listed first.
   **   ~~~   ** Demand-to-Supply interface energy check value iteration history trace: 1651.100508,1651.100507,1651.100507,1651.100506,1651.100506,1651.100505,1651.100505,1651.100504,1651.100504,1651.100504,
   **   ~~~   ** Supply-to-demand interface deck 1 energy check value iteration history trace: 2635.153395,2635.153395,2635.153394,2635.153393,2635.153392,2635.153392,2635.153391,2635.153390,2635.153389,2635.153389,
   **   ~~~   ** Node named ZONE INLET NODE shows oscillating temperatures across iterations with a repeated value of 31.404757
   **   ~~~   ** Node named ZONE INLET NODE temperature [C] iteration history trace (most recent first): 31.404757,31.404757,31.404757,31.404756,31.404756,31.404756,31.404756,31.404755,31.404755,31.404755,
   ** Warning ** SimHVAC: Maximum iterations (20) exceeded for all HVAC loops, at ANNUAL, 04/30 22:08 - 22:11
   **   ~~~   ** The solution for one or more of the Air Loop HVAC systems did not appear to converge
   **   ~~~   ** Air System Named = CENTRAL SYSTEM did not converge for mass flow rate
   **   ~~~   ** Check values should be zero. Most Recent values listed first.
   **   ~~~   ** Demand-to-Supply interface mass flow rate check value iteration history trace: 6.381937E-002,6.381937E-002,6.381937E-002,6.381937E-002,6.381937E-002,6.381937E-002,6.381937E-002,6.381937E-002,6.381937E-002,6.381937E-002,
   **   ~~~   ** Supply-to-demand interface deck 1 mass flow rate check value iteration history trace: 6.381937E-002,6.381937E-002,6.381937E-002,6.381937E-002,6.381937E-002,6.381937E-002,6.381937E-002,6.381937E-002,6.381937E-002,6.381937E-002,
   **   ~~~   ** Air System Named = CENTRAL SYSTEM did not converge for energy
   **   ~~~   ** Check values should be zero. Most Recent values listed first.
   **   ~~~   ** Demand-to-Supply interface energy check value iteration history trace: 1213.385922,1213.385922,1213.385922,1213.385922,1213.385922,1213.385922,1213.385922,1213.385922,1213.385922,1213.385922,
   **   ~~~   ** Supply-to-demand interface deck 1 energy check value iteration history trace: 2122.604157,2122.604157,2122.604157,2122.604157,2122.604156,2122.604156,2122.604156,2122.604156,2122.604156,2122.604156,
   ** Warning ** SimHVAC: Maximum iterations (20) exceeded for all HVAC loops, at ANNUAL, 05/05 06:30 - 06:45
   **   ~~~   ** The solution for one or more of the Air Loop HVAC systems did not appear to converge
   **   ~~~   ** Air System Named = CENTRAL SYSTEM did not converge for mass flow rate
   **   ~~~   ** Check values should be zero. Most Recent values listed first.
   **   ~~~   ** Demand-to-Supply interface mass flow rate check value iteration history trace: 7.837608E-002,7.837608E-002,7.837608E-002,7.837608E-002,7.837608E-002,7.837608E-002,7.837608E-002,7.837608E-002,7.837608E-002,7.837608E-002,
   **   ~~~   ** Supply-to-demand interface deck 1 mass flow rate check value iteration history trace: 7.837608E-002,7.837608E-002,7.837608E-002,7.837608E-002,7.837608E-002,7.837608E-002,7.837608E-002,7.837608E-002,7.837608E-002,7.837608E-002,
   **   ~~~   ** Air System Named = CENTRAL SYSTEM did not converge for energy
   **   ~~~   ** Check values should be zero. Most Recent values listed first.
   **   ~~~   ** Demand-to-Supply interface energy check value iteration history trace: 1520.283758,1520.283758,1520.283758,1520.283758,1520.283758,1520.283758,1520.283758,1520.283758,1520.283758,1520.283758,
   **   ~~~   ** Supply-to-demand interface deck 1 energy check value iteration history trace: 2706.409911,2706.409910,2706.409910,2706.409910,2706.409910,2706.409910,2706.409910,2706.409910,2706.409910,2706.409909,
   ** Warning ** SimHVAC: Maximum iterations (20) exceeded for all HVAC loops, at ANNUAL, 05/15 07:00 - 07:15
   **   ~~~   ** The solution for one or more of the Air Loop HVAC systems did not appear to converge
   **   ~~~   ** Air System Named = CENTRAL SYSTEM did not converge for mass flow rate
   **   ~~~   ** Check values should be zero. Most Recent values listed first.
   **   ~~~   ** Demand-to-Supply interface mass flow rate check value iteration history trace: 8.750590E-002,8.750590E-002,8.750590E-002,8.750590E-002,8.750590E-002,8.750590E-002,8.750590E-002,8.750590E-002,8.750590E-002,8.750590E-002,
   **   ~~~   ** Supply-to-demand interface deck 1 mass flow rate check value iteration history trace: 8.750590E-002,8.750590E-002,8.750590E-002,8.750590E-002,8.750590E-002,8.750590E-002,8.750590E-002,8.750590E-002,8.750590E-002,8.750590E-002,
   **   ~~~   ** Air System Named = CENTRAL SYSTEM did not converge for energy
   **   ~~~   ** Check values should be zero. Most Recent values listed first.
   **   ~~~   ** Demand-to-Supply interface energy check value iteration history trace: 1733.874599,1733.874598,1733.874598,1733.874598,1733.874598,1733.874598,1733.874598,1733.874598,1733.874598,1733.874598,
   **   ~~~   ** Supply-to-demand interface deck 1 energy check value iteration history trace: 2962.644890,2962.644890,2962.644890,2962.644890,2962.644890,2962.644890,2962.644890,2962.644890,2962.644889,2962.644889,
   ** Warning ** SimHVAC: Maximum iterations (20) exceeded for all HVAC loops, at ANNUAL, 05/15 07:00 - 07:08
   **   ~~~   ** The solution for one or more of the Air Loop HVAC systems did not appear to converge
   **   ~~~   ** Air System Named = CENTRAL SYSTEM did not converge for mass flow rate
   **   ~~~   ** Check values should be zero. Most Recent values listed first.
   **   ~~~   ** Demand-to-Supply interface mass flow rate check value iteration history trace: 8.837812E-002,8.837812E-002,8.837812E-002,8.837812E-002,8.837812E-002,8.837812E-002,8.837812E-002,8.837812E-002,8.837812E-002,8.837812E-002,
   **   ~~~   ** Supply-to-demand interface deck 1 mass flow rate check value iteration history trace: 8.837812E-002,8.837812E-002,8.837812E-002,8.837812E-002,8.837812E-002,8.837812E-002,8.837812E-002,8.837812E-002,8.837812E-002,8.837812E-002,
   **   ~~~   ** Air System Named = CENTRAL SYSTEM did not converge for energy
   **   ~~~   ** Check values should be zero. Most Recent values listed first.
   **   ~~~   ** Demand-to-Supply interface energy check value iteration history trace: 1751.137367,1751.137367,1751.137366,1751.137366,1751.137366,1751.137366,1751.137366,1751.137366,1751.137366,1751.137366,
   **   ~~~   ** Supply-to-demand interface deck 1 energy check value iteration history trace: 2992.114745,2992.114745,2992.114745,2992.114745,2992.114745,2992.114745,2992.114744,2992.114744,2992.114744,2992.114744,
   ** Warning ** SimHVAC: Maximum iterations (20) exceeded for all HVAC loops, at ANNUAL, 05/16 07:30 - 07:33
   **   ~~~   ** The solution for one or more of the Air Loop HVAC systems did not appear to converge
   **   ~~~   ** Air System Named = CENTRAL SYSTEM did not converge for mass flow rate
   **   ~~~   ** Check values should be zero. Most Recent values listed first.
   **   ~~~   ** Demand-to-Supply interface mass flow rate check value iteration history trace: 7.902611E-002,7.902611E-002,7.902611E-002,7.902611E-002,7.902611E-002,7.902611E-002,7.902611E-002,7.902611E-002,7.902611E-002,7.902611E-002,
   **   ~~~   ** Supply-to-demand interface deck 1 mass flow rate check value iteration history trace: 7.902611E-002,7.902611E-002,7.902611E-002,7.902611E-002,7.902611E-002,7.902611E-002,7.902611E-002,7.902611E-002,7.902611E-002,7.902611E-002,
   **   ~~~   ** Air System Named = CENTRAL SYSTEM did not converge for energy
   **   ~~~   ** Check values should be zero. Most Recent values listed first.
   **   ~~~   ** Demand-to-Supply interface energy check value iteration history trace: 1566.025526,1566.025526,1566.025526,1566.025526,1566.025526,1566.025526,1566.025526,1566.025526,1566.025526,1566.025526,
   **   ~~~   ** Supply-to-demand interface deck 1 energy check value iteration history trace: 2708.629582,2708.629582,2708.629582,2708.629582,2708.629582,2708.629582,2708.629582,2708.629581,2708.629581,2708.629581,
   ** Warning ** SimHVAC: Maximum iterations (20) exceeded for all HVAC loops, at ANNUAL, 11/08 20:30 - 20:45
   **   ~~~   ** The solution for one or more of the Air Loop HVAC systems did not appear to converge
   **   ~~~   ** Air System Named = CENTRAL SYSTEM did not converge for mass flow rate
   **   ~~~   ** Check values should be zero. Most Recent values listed first.
   **   ~~~   ** Demand-to-Supply interface mass flow rate check value iteration history trace: 0.106080,0.106080,0.106080,0.106080,0.106080,0.106080,0.106080,0.106080,0.106080,0.106080,
   **   ~~~   ** Supply-to-demand interface deck 1 mass flow rate check value iteration history trace: 0.106080,0.106080,0.106080,0.106080,0.106080,0.106080,0.106080,0.106080,0.106080,0.106080,
   **   ~~~   ** Air System Named = CENTRAL SYSTEM did not converge for energy
   **   ~~~   ** Check values should be zero. Most Recent values listed first.
   **   ~~~   ** Demand-to-Supply interface energy check value iteration history trace: 2096.800295,2096.800294,2096.800294,2096.800294,2096.800294,2096.800294,2096.800294,2096.800294,2096.800293,2096.800293,
   **   ~~~   ** Supply-to-demand interface deck 1 energy check value iteration history trace: 3257.265324,3257.265324,3257.265324,3257.265324,3257.265324,3257.265323,3257.265323,3257.265323,3257.265323,3257.265323,
   ** Warning ** SimHVAC: Maximum iterations (20) exceeded for all HVAC loops, at ANNUAL, 11/19 10:30 - 10:45
   **   ~~~   ** The solution for one or more of the Air Loop HVAC systems did not appear to converge
   **   ~~~   ** Air System Named = CENTRAL SYSTEM did not converge for mass flow rate
   **   ~~~   ** Check values should be zero. Most Recent values listed first.
   **   ~~~   ** Demand-to-Supply interface mass flow rate check value iteration history trace: 7.257459E-002,7.257459E-002,7.257459E-002,7.257459E-002,7.257459E-002,7.257459E-002,7.257459E-002,7.257459E-002,7.257459E-002,7.257459E-002,
   **   ~~~   ** Supply-to-demand interface deck 1 mass flow rate check value iteration history trace: 7.257459E-002,7.257459E-002,7.257459E-002,7.257459E-002,7.257459E-002,7.257459E-002,7.257459E-002,7.257459E-002,7.257459E-002,7.257459E-002,
   **   ~~~   ** Air System Named = CENTRAL SYSTEM did not converge for energy
   **   ~~~   ** Check values should be zero. Most Recent values listed first.
   **   ~~~   ** Demand-to-Supply interface energy check value iteration history trace: 1433.831564,1433.831564,1433.831564,1433.831564,1433.831564,1433.831564,1433.831564,1433.831564,1433.831564,1433.831564,
   **   ~~~   ** Supply-to-demand interface deck 1 energy check value iteration history trace: 2636.706730,2636.706730,2636.706730,2636.706730,2636.706730,2636.706730,2636.706730,2636.706730,2636.706729,2636.706729,
   ** Warning ** SimHVAC: Maximum iterations (20) exceeded for all HVAC loops, at ANNUAL, 11/29 20:30 - 20:45
   **   ~~~   ** The solution for one or more of the Air Loop HVAC systems did not appear to converge
   **   ~~~   ** Air System Named = CENTRAL SYSTEM did not converge for mass flow rate
   **   ~~~   ** Check values should be zero. Most Recent values listed first.
   **   ~~~   ** Demand-to-Supply interface mass flow rate check value iteration history trace: 0.101397,0.101397,0.101397,0.101397,0.101397,0.101397,0.101397,0.101397,0.101397,0.101397,
   **   ~~~   ** Supply-to-demand interface deck 1 mass flow rate check value iteration history trace: 0.101397,0.101397,0.101397,0.101397,0.101397,0.101397,0.101397,0.101397,0.101397,0.101397,
   **   ~~~   ** Air System Named = CENTRAL SYSTEM did not converge for energy
   **   ~~~   ** Check values should be zero. Most Recent values listed first.
   **   ~~~   ** Demand-to-Supply interface energy check value iteration history trace: 2008.579529,2008.579529,2008.579529,2008.579529,2008.579529,2008.579528,2008.579528,2008.579528,2008.579528,2008.579528,
   **   ~~~   ** Supply-to-demand interface deck 1 energy check value iteration history trace: 3106.967396,3106.967396,3106.967396,3106.967396,3106.967395,3106.967395,3106.967395,3106.967395,3106.967395,3106.967394,
   ************* Simulation Error Summary *************
   ** Warning ** The following Report Variables were requested but not generated -- check.rdd file
   **   ~~~   ** Either the IDF did not contain these elements, the variable name is misspelled,
   **   ~~~   ** or the requested variable is an advanced output which requires Output : Diagnostics, DisplayAdvancedReportVariables;
   ************* Key=*, VarName=BASEBOARD TOTAL HEATING ENERGY, Frequency=
   ************* Key=*, VarName=WATER HEATER NATURALGAS ENERGY, Frequency=
   ************* Key=*, VarName=COOLING COIL TOTAL HEATING ENERGY, Frequency=
   ************* There are 34 unused schedules in input.
   ************* There are 388 unused week schedules in input.
   ************* There are 396 unused day schedules in input.
   ************* Use Output:Diagnostics,DisplayUnusedSchedules; to see them.
   *************
   ************* ===== Recurring Error Summary =====
   ************* The following recurring error messages occurred.
   *************
   *************  ** Warning ** "TOTAL HOT WATER LOAD" - Target water temperature should be less than or equal to the hot water temperature error continues...
   *************  **   ~~~   **   This error occurred 83945 total times;
   *************  **   ~~~   **   during Warmup 0 times;
   *************  **   ~~~   **   during Sizing 0 times.
   *************  **   ~~~   **   Max=10.850619  Min=1.237993E-004
   *************
   *************
   ************* ===== Final Error Summary =====
   ************* The following error categories occurred.  Consider correcting or noting.
   ************* Nominally Unused Constructions
   ************* ..The nominally unused constructions warning is provided to alert you to potential conditions that can cause
   ************* ..extra time during simulation. Each construction is calculated by the algorithm indicated in the HeatBalanceAlgorithm
   ************* ..object. You may remove the constructions indicated (when you use the DisplayExtraWarnings option).
   *************
   ************* EnergyPlus Warmup Error Summary. During Warmup: 1 Warning; 0 Severe Errors.
   ************* EnergyPlus Sizing Error Summary. During Sizing: 4 Warning; 0 Severe Errors.
   ************* EnergyPlus Completed Successfully-- 83973 Warning; 0 Severe Errors; Elapsed Time=00hr 05min 20.19sec
