Program Version,EnergyPlus, Version 22.2.0-c249759bad, YMD=2023.09.01 19:14,
   ************* Beginning Zone Sizing Calculations
   ** Warning ** ProcessScheduleInput: Schedule:Constant="ALWAYS ON DISCRETE", Schedule Type Limits Name="ONOFF" not found -- will not be validated
   ** Warning ** Foundation:Kiva="KIVA FOUNDATION", no Interior Horizontal Insulation Material Name defined
   **   ~~~   ** Interior Horizontal Insulation Depth will not be used.
   ** Warning ** CheckUsedConstructions: There are 15 nominally unused constructions in input.
   **   ~~~   ** Each Unused construction is shown.
   ************* Construction=INTERIOR FLOOR
   ************* Construction=INTERIOR WINDOW
   ************* Construction=EXTERIOR DOOR
   ************* Construction=INTERIOR DOOR
   ************* Construction=GABLE CONSTRUCTION
   ************* Construction=CRAWL_FLOOR
   ************* Construction=INSULATED PIPE
   ************* Construction=PLAIN PIPE
   ************* Construction=TDD PIPE
   ************* Construction=TDD DOME
   ************* Construction=TDD DIFFUSER
   ************* Construction=CRAWL WALL
   ************* Construction=CEILING-FLOOR-LAYER
   ************* Construction=SLAB CONSTRUCTION W FULL R10 INSULATION
   ************* Construction=SLAB CONSTRUCTION W FULL R5 INSULATION
   ** Warning ** GetDXCoils: Coil:Heating:DX:SingleSpeed="DX_HEATING_COIL" curve values
   **   ~~~   ** ... Defrost Energy Input Ratio Function of Temperature Curve Name = DEFROSTEIR output is not equal to 1.0 (+ or - 10%) at rated conditions.
   **   ~~~   ** ... Curve output at rated conditions = 0.152
   ************* Beginning System Sizing Calculations
   ************* Beginning Plant Sizing Calculations
   ** Warning ** SizeDXCoil Coil:Cooling:DX:SingleSpeed DX_COOLING_COIL
   **   ~~~   ** ...Gross Rated Total Cooling Capacity [W] will be limited by the maximum rated volume flow per rated total capacity ratio.
   **   ~~~   ** ...DX coil volume flow rate ( m3/s ) = 0.440537
   **   ~~~   ** ...Requested capacity ( W ) = 6852.317
   **   ~~~   ** ...Requested flow/capacity ratio ( m3/s/W ) = 6.429E-005
   **   ~~~   ** ...Maximum flow/capacity ratio ( m3/s/W ) = 6.041E-005
   **   ~~~   ** ...Adjusted capacity ( W ) = 7292.455
   ** Warning ** Coil:WaterHeating:AirToWaterHeatPump:Wrapped "HEAT PUMP WATER HEATER EVAPORATOR": Rated air volume flow rate per watt of rated total water heating capacity is out of range
   **   ~~~   ** Min Rated Vol Flow Per Watt=[4.027E-005], Rated Vol Flow Per Watt=[1.510E-004], Max Rated Vol Flow Per Watt=[8.056E-005]. See Input-Output Reference Manual for valid range.
   ************* SizeFan: : Potential issue with equipment sizing for Fan:OnOff HEAT PUMP WATER HEATER FAN
   **   ~~~   ** User-Specified Maximum Flow Rate [m3/s] = 0.22653
   **   ~~~   ** differs from Design Size Maximum Flow Rate [m3/s] = 7.55250E-002
   **   ~~~   ** This may, or may not, indicate mismatched component sizes.
   **   ~~~   ** Verify that the value entered is intended and is consistent with other components.
   ** Warning ** Water heater = WATER HEATER TANK:  Recovery Efficiency and Energy Factor could not be calculated during the test for standard ratings
   **   ~~~   ** Setpoint was never recovered and/or heater never turned on
   ** Warning ** Check input. Pump nominal power or motor efficiency is set to 0, for pump=MAINS PRESSURE
   ** Warning ** Output:Meter: invalid Key Name="ELECTRIC_RANGE:INTERIOREQUIPMENT:ELECTRICITY" - not found.
   ** Warning ** Output:Meter: invalid Key Name="ELECTRIC_DRYER:INTERIOREQUIPMENT:ELECTRICITY" - not found.
   ** Warning ** Output:Meter: invalid Key Name="HEATRECOVERY:ELECTRICITY" - not found.
   ** Warning ** Output:Meter: invalid Key Name="HEATING:NATURALGAS" - not found.
   ** Warning ** Output:Meter: invalid Key Name="WATERSYSTEMS:NATURALGAS" - not found.
   ** Warning ** Output:Meter: invalid Key Name="PROPANE:FACILITY" - not found.
   ** Warning ** Output:Meter: invalid Key Name="HEATING:PROPANE" - not found.
   ************* Testing Individual Branch Integrity
   ************* All Branches passed integrity testing
   ************* Testing Individual Supply Air Path Integrity
   ************* All Supply Air Paths passed integrity testing
   ************* Testing Individual Return Air Path Integrity
   ************* All Return Air Paths passed integrity testing
   ************* No node connection errors were found.
   ************* Beginning Simulation
   ** Warning ** AirflowNetwork::Solver::validate_distribution: Heat pump water heater is simulated along with an AirflowNetwork but is not included in the AirflowNetwork.
   ** Warning ** CalcEquipmentFlowRates: "TOTAL HOT WATER LOAD" - Target water temperature is greater than the hot water temperature by (0.16 C)
   **   ~~~   **  Environment=EXTREME_WINTER, at Simulation time=02/05 06:45 - 07:00
   **   ~~~   ** ...target water temperature     = 53.33 C
   **   ~~~   ** ...hot water temperature        = 53.18 C
   **   ~~~   ** ...Target water temperature should be less than or equal to the hot water temperature. Verify temperature setpoints and schedules.
   ** Warning ** SimHVAC: Maximum iterations (20) exceeded for all HVAC loops, at ANNUAL, 01/07 13:55 - 14:00
   **   ~~~   ** The solution for one or more of the Air Loop HVAC systems did not appear to converge
   **   ~~~   ** Air System Named = CENTRAL SYSTEM did not converge for mass flow rate
   **   ~~~   ** Check values should be zero. Most Recent values listed first.
   **   ~~~   ** Demand-to-Supply interface mass flow rate check value iteration history trace: 7.524886E-002,7.524886E-002,7.524886E-002,7.524886E-002,7.524886E-002,7.524886E-002,7.524886E-002,7.524886E-002,7.524886E-002,7.524886E-002,
   **   ~~~   ** Supply-to-demand interface deck 1 mass flow rate check value iteration history trace: 7.524886E-002,7.524886E-002,7.524886E-002,7.524886E-002,7.524886E-002,7.524886E-002,7.524886E-002,7.524886E-002,7.524886E-002,7.524886E-002,
   **   ~~~   ** Air System Named = CENTRAL SYSTEM did not converge for energy
   **   ~~~   ** Check values should be zero. Most Recent values listed first.
   **   ~~~   ** Demand-to-Supply interface energy check value iteration history trace: 1491.174785,1491.174784,1491.174784,1491.174784,1491.174784,1491.174784,1491.174784,1491.174784,1491.174784,1491.174784,
   **   ~~~   ** Supply-to-demand interface deck 1 energy check value iteration history trace: 2271.800644,2271.800644,2271.800644,2271.800644,2271.800644,2271.800644,2271.800643,2271.800643,2271.800643,2271.800643,
   ** Warning ** SimHVAC: Maximum iterations (20) exceeded for all HVAC loops, at ANNUAL, 01/07 14:15 - 14:30
   **   ~~~   ** The solution for one or more of the Air Loop HVAC systems did not appear to converge
   **   ~~~   ** Air System Named = CENTRAL SYSTEM did not converge for mass flow rate
   **   ~~~   ** Check values should be zero. Most Recent values listed first.
   **   ~~~   ** Demand-to-Supply interface mass flow rate check value iteration history trace: 7.094758E-002,7.094758E-002,7.094758E-002,7.094758E-002,7.094758E-002,7.094758E-002,7.094758E-002,7.094758E-002,7.094758E-002,7.094758E-002,
   **   ~~~   ** Supply-to-demand interface deck 1 mass flow rate check value iteration history trace: 7.094758E-002,7.094758E-002,7.094758E-002,7.094758E-002,7.094758E-002,7.094758E-002,7.094758E-002,7.094758E-002,7.094758E-002,7.094758E-002,
   **   ~~~   ** Air System Named = CENTRAL SYSTEM did not converge for energy
   **   ~~~   ** Check values should be zero. Most Recent values listed first.
   **   ~~~   ** Demand-to-Supply interface energy check value iteration history trace: 1402.496123,1402.496123,1402.496123,1402.496123,1402.496123,1402.496123,1402.496123,1402.496122,1402.496122,1402.496122,
   **   ~~~   ** Supply-to-demand interface deck 1 energy check value iteration history trace: 2141.866011,2141.866010,2141.866010,2141.866010,2141.866010,2141.866010,2141.866010,2141.866010,2141.866009,2141.866009,
   ** Warning ** SimHVAC: Maximum iterations (20) exceeded for all HVAC loops, at ANNUAL, 02/28 15:56 - 15:57
   **   ~~~   ** The solution for one or more of the Air Loop HVAC systems did not appear to converge
   **   ~~~   ** Air System Named = CENTRAL SYSTEM did not converge for mass flow rate
   **   ~~~   ** Check values should be zero. Most Recent values listed first.
   **   ~~~   ** Demand-to-Supply interface mass flow rate check value iteration history trace: 8.765474E-002,8.765474E-002,8.765474E-002,8.765474E-002,8.765474E-002,8.765474E-002,8.765474E-002,8.765474E-002,8.765474E-002,8.765474E-002,
   **   ~~~   ** Supply-to-demand interface deck 1 mass flow rate check value iteration history trace: 8.765474E-002,8.765474E-002,8.765474E-002,8.765474E-002,8.765474E-002,8.765474E-002,8.765474E-002,8.765474E-002,8.765474E-002,8.765474E-002,
   **   ~~~   ** Air System Named = CENTRAL SYSTEM did not converge for energy
   **   ~~~   ** Check values should be zero. Most Recent values listed first.
   **   ~~~   ** Demand-to-Supply interface energy check value iteration history trace: 1735.493791,1735.493791,1735.493791,1735.493791,1735.493791,1735.493791,1735.493791,1735.493790,1735.493790,1735.493790,
   **   ~~~   ** Supply-to-demand interface deck 1 energy check value iteration history trace: 2539.147815,2539.147815,2539.147815,2539.147814,2539.147814,2539.147814,2539.147814,2539.147814,2539.147813,2539.147813,
   ** Warning ** SimHVAC: Maximum iterations (20) exceeded for all HVAC loops, at ANNUAL, 03/14 23:45 - 24:00
   **   ~~~   ** The solution for one or more of the Air Loop HVAC systems did not appear to converge
   **   ~~~   ** Air System Named = CENTRAL SYSTEM did not converge for mass flow rate
   **   ~~~   ** Check values should be zero. Most Recent values listed first.
   **   ~~~   ** Demand-to-Supply interface mass flow rate check value iteration history trace: 9.075392E-002,9.075392E-002,9.075392E-002,9.075392E-002,9.075392E-002,9.075392E-002,9.075392E-002,9.075392E-002,9.075392E-002,9.075392E-002,
   **   ~~~   ** Supply-to-demand interface deck 1 mass flow rate check value iteration history trace: 9.075392E-002,9.075392E-002,9.075392E-002,9.075392E-002,9.075392E-002,9.075392E-002,9.075392E-002,9.075392E-002,9.075392E-002,9.075392E-002,
   **   ~~~   ** Air System Named = CENTRAL SYSTEM did not converge for energy
   **   ~~~   ** Check values should be zero. Most Recent values listed first.
   **   ~~~   ** Demand-to-Supply interface energy check value iteration history trace: 1699.104007,1699.104007,1699.104007,1699.104007,1699.104007,1699.104007,1699.104007,1699.104007,1699.104007,1699.104007,
   **   ~~~   ** Supply-to-demand interface deck 1 energy check value iteration history trace: 2627.230365,2627.230365,2627.230365,2627.230365,2627.230364,2627.230364,2627.230364,2627.230364,2627.230364,2627.230364,
   ** Warning ** SimHVAC: Maximum iterations (20) exceeded for all HVAC loops, at ANNUAL, 04/01 19:00 - 19:08
   **   ~~~   ** The solution for one or more of the Air Loop HVAC systems did not appear to converge
   **   ~~~   ** Air System Named = CENTRAL SYSTEM did not converge for mass flow rate
   **   ~~~   ** Check values should be zero. Most Recent values listed first.
   **   ~~~   ** Demand-to-Supply interface mass flow rate check value iteration history trace: 6.361748E-002,6.361748E-002,6.361748E-002,6.361748E-002,6.361748E-002,6.361748E-002,6.361748E-002,6.361748E-002,6.361748E-002,6.361748E-002,
   **   ~~~   ** Supply-to-demand interface deck 1 mass flow rate check value iteration history trace: 6.361748E-002,6.361748E-002,6.361748E-002,6.361748E-002,6.361748E-002,6.361748E-002,6.361748E-002,6.361748E-002,6.361748E-002,6.361748E-002,
   **   ~~~   ** Air System Named = CENTRAL SYSTEM did not converge for energy
   **   ~~~   ** Check values should be zero. Most Recent values listed first.
   **   ~~~   ** Demand-to-Supply interface energy check value iteration history trace: 1258.245178,1258.245177,1258.245177,1258.245177,1258.245177,1258.245177,1258.245177,1258.245177,1258.245177,1258.245177,
   **   ~~~   ** Supply-to-demand interface deck 1 energy check value iteration history trace: 2210.222928,2210.222927,2210.222927,2210.222927,2210.222927,2210.222927,2210.222927,2210.222927,2210.222927,2210.222927,
   ** Warning ** SimHVAC: Maximum iterations (20) exceeded for all HVAC loops, at ANNUAL, 04/20 17:15 - 17:30
   **   ~~~   ** The solution for one or more of the Air Loop HVAC systems did not appear to converge
   **   ~~~   ** Air System Named = CENTRAL SYSTEM did not converge for mass flow rate
   **   ~~~   ** Check values should be zero. Most Recent values listed first.
   **   ~~~   ** Demand-to-Supply interface mass flow rate check value iteration history trace: 6.647582E-002,6.647582E-002,6.647582E-002,6.647582E-002,6.647582E-002,6.647582E-002,6.647582E-002,6.647582E-002,6.647582E-002,6.647582E-002,
   **   ~~~   ** Supply-to-demand interface deck 1 mass flow rate check value iteration history trace: 6.647582E-002,6.647582E-002,6.647582E-002,6.647582E-002,6.647582E-002,6.647582E-002,6.647582E-002,6.647582E-002,6.647582E-002,6.647582E-002,
   **   ~~~   ** Air System Named = CENTRAL SYSTEM did not converge for energy
   **   ~~~   ** Check values should be zero. Most Recent values listed first.
   **   ~~~   ** Demand-to-Supply interface energy check value iteration history trace: 1317.466507,1317.466507,1317.466507,1317.466507,1317.466507,1317.466507,1317.466507,1317.466507,1317.466507,1317.466507,
   **   ~~~   ** Supply-to-demand interface deck 1 energy check value iteration history trace: 2218.464874,2218.464874,2218.464874,2218.464874,2218.464874,2218.464874,2218.464874,2218.464874,2218.464874,2218.464873,
   ** Warning ** SimHVAC: Maximum iterations (20) exceeded for all HVAC loops, at ANNUAL, 04/28 09:15 - 09:30
   **   ~~~   ** The solution for one or more of the Air Loop HVAC systems did not appear to converge
   **   ~~~   ** Air System Named = CENTRAL SYSTEM did not converge for mass flow rate
   **   ~~~   ** Check values should be zero. Most Recent values listed first.
   **   ~~~   ** Demand-to-Supply interface mass flow rate check value iteration history trace: 6.082508E-002,6.082508E-002,6.082508E-002,6.082508E-002,6.082508E-002,6.082508E-002,6.082508E-002,6.082508E-002,6.082508E-002,6.082508E-002,
   **   ~~~   ** Supply-to-demand interface deck 1 mass flow rate check value iteration history trace: 6.082508E-002,6.082508E-002,6.082508E-002,6.082508E-002,6.082508E-002,6.082508E-002,6.082508E-002,6.082508E-002,6.082508E-002,6.082508E-002,
   **   ~~~   ** Air System Named = CENTRAL SYSTEM did not converge for energy
   **   ~~~   ** Check values should be zero. Most Recent values listed first.
   **   ~~~   ** Demand-to-Supply interface energy check value iteration history trace: 1205.301599,1205.301599,1205.301599,1205.301599,1205.301599,1205.301599,1205.301599,1205.301599,1205.301598,1205.301598,
   **   ~~~   ** Supply-to-demand interface deck 1 energy check value iteration history trace: 2127.209417,2127.209417,2127.209417,2127.209417,2127.209416,2127.209416,2127.209416,2127.209416,2127.209416,2127.209416,
   ** Warning ** SimHVAC: Maximum iterations (20) exceeded for all HVAC loops, at ANNUAL, 05/03 09:15 - 09:22
   **   ~~~   ** The solution for one or more of the Air Loop HVAC systems did not appear to converge
   **   ~~~   ** Air System Named = CENTRAL SYSTEM did not converge for mass flow rate
   **   ~~~   ** Check values should be zero. Most Recent values listed first.
   **   ~~~   ** Demand-to-Supply interface mass flow rate check value iteration history trace: 6.936063E-002,6.936063E-002,6.936063E-002,6.936063E-002,6.936063E-002,6.936063E-002,6.936063E-002,6.936063E-002,6.936063E-002,6.936063E-002,
   **   ~~~   ** Supply-to-demand interface deck 1 mass flow rate check value iteration history trace: 6.936063E-002,6.936063E-002,6.936063E-002,6.936063E-002,6.936063E-002,6.936063E-002,6.936063E-002,6.936063E-002,6.936063E-002,6.936063E-002,
   **   ~~~   ** Air System Named = CENTRAL SYSTEM did not converge for energy
   **   ~~~   ** Check values should be zero. Most Recent values listed first.
   **   ~~~   ** Demand-to-Supply interface energy check value iteration history trace: 1374.772268,1374.772268,1374.772268,1374.772268,1374.772268,1374.772268,1374.772268,1374.772268,1374.772268,1374.772268,
   **   ~~~   ** Supply-to-demand interface deck 1 energy check value iteration history trace: 2428.702855,2428.702855,2428.702855,2428.702854,2428.702854,2428.702854,2428.702854,2428.702854,2428.702854,2428.702854,
   ** Warning ** SimHVAC: Maximum iterations (20) exceeded for all HVAC loops, at ANNUAL, 05/06 09:00 - 09:15
   **   ~~~   ** The solution for one or more of the Air Loop HVAC systems did not appear to converge
   **   ~~~   ** Air System Named = CENTRAL SYSTEM did not converge for mass flow rate
   **   ~~~   ** Check values should be zero. Most Recent values listed first.
   **   ~~~   ** Demand-to-Supply interface mass flow rate check value iteration history trace: 6.425549E-002,6.425549E-002,6.425549E-002,6.425549E-002,6.425549E-002,6.425549E-002,6.425549E-002,6.425549E-002,6.425549E-002,6.425549E-002,
   **   ~~~   ** Supply-to-demand interface deck 1 mass flow rate check value iteration history trace: 6.425549E-002,6.425549E-002,6.425549E-002,6.425549E-002,6.425549E-002,6.425549E-002,6.425549E-002,6.425549E-002,6.425549E-002,6.425549E-002,
   **   ~~~   ** Air System Named = CENTRAL SYSTEM did not converge for energy
   **   ~~~   ** Check values should be zero. Most Recent values listed first.
   **   ~~~   ** Demand-to-Supply interface energy check value iteration history trace: 1273.451668,1273.451668,1273.451668,1273.451668,1273.451668,1273.451668,1273.451668,1273.451668,1273.451668,1273.451668,
   **   ~~~   ** Supply-to-demand interface deck 1 energy check value iteration history trace: 2207.923584,2207.923583,2207.923583,2207.923583,2207.923583,2207.923583,2207.923583,2207.923583,2207.923583,2207.923583,
   ** Warning ** SimHVAC: Maximum iterations (20) exceeded for all HVAC loops, at ANNUAL, 05/15 05:15 - 05:22
   **   ~~~   ** The solution for one or more of the Air Loop HVAC systems did not appear to converge
   **   ~~~   ** Air System Named = CENTRAL SYSTEM did not converge for mass flow rate
   **   ~~~   ** Check values should be zero. Most Recent values listed first.
   **   ~~~   ** Demand-to-Supply interface mass flow rate check value iteration history trace: 3.144886E-002,3.144886E-002,3.144886E-002,3.144886E-002,3.144886E-002,3.144886E-002,3.144886E-002,3.144886E-002,3.144886E-002,3.144886E-002,
   **   ~~~   ** Supply-to-demand interface deck 1 mass flow rate check value iteration history trace: 3.144886E-002,3.144886E-002,3.144886E-002,3.144886E-002,3.144886E-002,3.144886E-002,3.144886E-002,3.144886E-002,3.144886E-002,3.144886E-002,
   **   ~~~   ** Air System Named = CENTRAL SYSTEM did not converge for energy
   **   ~~~   ** Check values should be zero. Most Recent values listed first.
   **   ~~~   ** Demand-to-Supply interface energy check value iteration history trace: 610.479379,610.479379,610.479379,610.479379,610.479379,610.479379,610.479379,610.479379,610.479379,610.479379,
   **   ~~~   ** Supply-to-demand interface deck 1 energy check value iteration history trace: 1069.762934,1069.762934,1069.762934,1069.762934,1069.762934,1069.762934,1069.762934,1069.762934,1069.762934,1069.762934,
   ** Warning ** SimHVAC: Maximum iterations (20) exceeded for all HVAC loops, at ANNUAL, 05/27 06:00 - 06:15
   **   ~~~   ** The solution for one or more of the Air Loop HVAC systems did not appear to converge
   **   ~~~   ** Air System Named = CENTRAL SYSTEM did not converge for mass flow rate
   **   ~~~   ** Check values should be zero. Most Recent values listed first.
   **   ~~~   ** Demand-to-Supply interface mass flow rate check value iteration history trace: 9.127384E-002,9.127384E-002,9.127384E-002,9.127384E-002,9.127384E-002,9.127384E-002,9.127384E-002,9.127384E-002,9.127384E-002,9.127384E-002,
   **   ~~~   ** Supply-to-demand interface deck 1 mass flow rate check value iteration history trace: 9.127384E-002,9.127384E-002,9.127384E-002,9.127384E-002,9.127384E-002,9.127384E-002,9.127384E-002,9.127384E-002,9.127384E-002,9.127384E-002,
   **   ~~~   ** Air System Named = CENTRAL SYSTEM did not converge for energy
   **   ~~~   ** Check values should be zero. Most Recent values listed first.
   **   ~~~   ** Demand-to-Supply interface energy check value iteration history trace: 2151.472912,2151.472913,2151.472913,2151.472914,2151.472914,2151.472914,2151.472915,2151.472915,2151.472916,2151.472916,
   **   ~~~   ** Supply-to-demand interface deck 1 energy check value iteration history trace: 1014.369357,1014.369357,1014.369358,1014.369358,1014.369358,1014.369358,1014.369358,1014.369358,1014.369359,1014.369359,
   ** Warning ** SimHVAC: Maximum iterations (20) exceeded for all HVAC loops, at ANNUAL, 05/31 23:15 - 23:30
   **   ~~~   ** The solution for one or more of the Air Loop HVAC systems did not appear to converge
   **   ~~~   ** Air System Named = CENTRAL SYSTEM did not converge for mass flow rate
   **   ~~~   ** Check values should be zero. Most Recent values listed first.
   **   ~~~   ** Demand-to-Supply interface mass flow rate check value iteration history trace: 0.112143,0.112143,0.112143,0.112143,0.112143,0.112143,0.112143,0.112143,0.112143,0.112143,
   **   ~~~   ** Supply-to-demand interface deck 1 mass flow rate check value iteration history trace: 0.112143,0.112143,0.112143,0.112143,0.112143,0.112143,0.112143,0.112143,0.112143,0.112143,
   **   ~~~   ** Air System Named = CENTRAL SYSTEM did not converge for energy
   **   ~~~   ** Check values should be zero. Most Recent values listed first.
   **   ~~~   ** Demand-to-Supply interface energy check value iteration history trace: 2819.514481,2819.514481,2819.514481,2819.514482,2819.514482,2819.514483,2819.514483,2819.514483,2819.514484,2819.514484,
   **   ~~~   ** Supply-to-demand interface deck 1 energy check value iteration history trace: 1329.215391,1329.215392,1329.215392,1329.215392,1329.215392,1329.215392,1329.215393,1329.215393,1329.215393,1329.215393,
   ** Warning ** SimHVAC: Maximum iterations (20) exceeded for all HVAC loops, at ANNUAL, 06/02 08:09 - 08:12
   **   ~~~   ** The solution for one or more of the Air Loop HVAC systems did not appear to converge
   **   ~~~   ** Air System Named = CENTRAL SYSTEM did not converge for mass flow rate
   **   ~~~   ** Check values should be zero. Most Recent values listed first.
   **   ~~~   ** Demand-to-Supply interface mass flow rate check value iteration history trace: 0.211145,0.211145,0.211145,0.211145,0.211145,0.211145,0.211145,0.211145,0.211145,0.211145,
   **   ~~~   ** Supply-to-demand interface deck 1 mass flow rate check value iteration history trace: 0.211145,0.211145,0.211145,0.211145,0.211145,0.211145,0.211145,0.211145,0.211145,0.211145,
   **   ~~~   ** Air System Named = CENTRAL SYSTEM did not converge for energy
   **   ~~~   ** Check values should be zero. Most Recent values listed first.
   **   ~~~   ** Demand-to-Supply interface energy check value iteration history trace: 5013.205544,5013.205545,5013.205546,5013.205547,5013.205548,5013.205550,5013.205551,5013.205552,5013.205553,5013.205555,
   **   ~~~   ** Supply-to-demand interface deck 1 energy check value iteration history trace: 2850.488234,2850.488234,2850.488235,2850.488236,2850.488236,2850.488237,2850.488238,2850.488238,2850.488239,2850.488240,
   ** Warning ** SimHVAC: Maximum iterations (20) exceeded for all HVAC loops, at ANNUAL, 10/02 17:20 - 17:25
   **   ~~~   ** The solution for one or more of the Air Loop HVAC systems did not appear to converge
   **   ~~~   ** Air System Named = CENTRAL SYSTEM did not converge for mass flow rate
   **   ~~~   ** Check values should be zero. Most Recent values listed first.
   **   ~~~   ** Demand-to-Supply interface mass flow rate check value iteration history trace: 1.380147E-002,1.380147E-002,1.380147E-002,1.380147E-002,1.380147E-002,1.380147E-002,1.380147E-002,1.380147E-002,1.380147E-002,1.380147E-002,
   **   ~~~   ** Supply-to-demand interface deck 1 mass flow rate check value iteration history trace: 1.380147E-002,1.380147E-002,1.380147E-002,1.380147E-002,1.380147E-002,1.380147E-002,1.380147E-002,1.380147E-002,1.380147E-002,1.380147E-002,
   **   ~~~   ** Air System Named = CENTRAL SYSTEM did not converge for energy
   **   ~~~   ** Check values should be zero. Most Recent values listed first.
   **   ~~~   ** Demand-to-Supply interface energy check value iteration history trace: 325.296059,325.296059,325.296059,325.296059,325.296059,325.296059,325.296059,325.296059,325.296059,325.296059,
   **   ~~~   ** Supply-to-demand interface deck 1 energy check value iteration history trace: 136.912830,136.912830,136.912830,136.912830,136.912830,136.912830,136.912830,136.912830,136.912830,136.912830,
   ** Warning ** Temperature out of range [-100. to 200.] (PsyPsatFnTemp)
   **   ~~~   **  Routine=PsyTwbFnTdbWPb, Environment=ANNUAL, at Simulation time=11/18 02:30 - 02:45
   **   ~~~   **  Input Temperature=-174.10
   ************* Simulation Error Summary *************
   ** Warning ** The following Report Variables were requested but not generated -- check.rdd file
   **   ~~~   ** Either the IDF did not contain these elements, the variable name is misspelled,
   **   ~~~   ** or the requested variable is an advanced output which requires Output : Diagnostics, DisplayAdvancedReportVariables;
   ************* Key=*, VarName=BASEBOARD TOTAL HEATING ENERGY, Frequency=
   ************* Key=*, VarName=WATER HEATER NATURALGAS ENERGY, Frequency=
   ************* Key=*, VarName=COOLING COIL TOTAL HEATING ENERGY, Frequency=
   ************* There are 34 unused schedules in input.
   ************* There are 388 unused week schedules in input.
   ************* There are 397 unused day schedules in input.
   ************* Use Output:Diagnostics,DisplayUnusedSchedules; to see them.
   *************
   ************* ===== Recurring Error Summary =====
   ************* The following recurring error messages occurred.
   *************
   *************  ** Warning ** "TOTAL HOT WATER LOAD" - Target water temperature should be less than or equal to the hot water temperature error continues...
   *************  **   ~~~   **   This error occurred 85609 total times;
   *************  **   ~~~   **   during Warmup 0 times;
   *************  **   ~~~   **   during Sizing 0 times.
   *************  **   ~~~   **   Max=9.815034  Min=3.402466E-004
   *************
   *************  ** Warning ** SimHVAC: Exceeding Maximum iterations for all HVAC loops, during ANNUAL continues
   *************  **   ~~~   **   This error occurred 5 total times;
   *************  **   ~~~   **   during Warmup 0 times;
   *************  **   ~~~   **   during Sizing 0 times.
   *************
   *************  ** Warning ** Temperature out of range [-100. to 200.] (PsyPsatFnTemp)
   *************  **   ~~~   **   This error occurred 1 total times;
   *************  **   ~~~   **   during Warmup 0 times;
   *************  **   ~~~   **   during Sizing 0 times.
   *************  **   ~~~   **   Max=-174.105957 C  Min=-174.105957 C
   *************
   *************
   ************* ===== Final Error Summary =====
   ************* The following error categories occurred.  Consider correcting or noting.
   ************* Nominally Unused Constructions
   ************* ..The nominally unused constructions warning is provided to alert you to potential conditions that can cause
   ************* ..extra time during simulation. Each construction is calculated by the algorithm indicated in the HeatBalanceAlgorithm
   ************* ..object. You may remove the constructions indicated (when you use the DisplayExtraWarnings option).
   *************
   ************* EnergyPlus Warmup Error Summary. During Warmup: 1 Warning; 0 Severe Errors.
   ************* EnergyPlus Sizing Error Summary. During Sizing: 4 Warning; 0 Severe Errors.
   ************* EnergyPlus Completed Successfully-- 85647 Warning; 0 Severe Errors; Elapsed Time=00hr 01min 28.95sec
