Program Version,EnergyPlus, Version 22.2.0-c249759bad, YMD=2023.08.31 13:04,
   ************* Beginning Zone Sizing Calculations
   ** Warning ** ProcessScheduleInput: Schedule:Constant="ALWAYS ON DISCRETE", Schedule Type Limits Name="ONOFF" not found -- will not be validated
   ** Warning ** Foundation:Kiva="KIVA FOUNDATION", no Interior Horizontal Insulation Material Name defined
   **   ~~~   ** Interior Horizontal Insulation Depth will not be used.
   ** Warning ** CheckUsedConstructions: There are 15 nominally unused constructions in input.
   **   ~~~   ** Each Unused construction is shown.
   ************* Construction=INTERIOR FLOOR
   ************* Construction=INTERIOR WINDOW
   ************* Construction=EXTERIOR DOOR
   ************* Construction=INTERIOR DOOR
   ************* Construction=GABLE CONSTRUCTION
   ************* Construction=CRAWL_FLOOR
   ************* Construction=INSULATED PIPE
   ************* Construction=PLAIN PIPE
   ************* Construction=TDD PIPE
   ************* Construction=TDD DOME
   ************* Construction=TDD DIFFUSER
   ************* Construction=CRAWL WALL
   ************* Construction=CEILING-FLOOR-LAYER
   ************* Construction=SLAB CONSTRUCTION W FULL R10 INSULATION
   ************* Construction=SLAB CONSTRUCTION W FULL R5 INSULATION
   ** Warning ** GetDXCoils: Coil:Heating:DX:SingleSpeed="DX_HEATING_COIL" curve values
   **   ~~~   ** ... Defrost Energy Input Ratio Function of Temperature Curve Name = DEFROSTEIR output is not equal to 1.0 (+ or - 10%) at rated conditions.
   **   ~~~   ** ... Curve output at rated conditions = 0.152
   ************* Beginning System Sizing Calculations
   ************* Beginning Plant Sizing Calculations
   ** Warning ** Coil:WaterHeating:AirToWaterHeatPump:Wrapped "HEAT PUMP WATER HEATER EVAPORATOR": Rated air volume flow rate per watt of rated total water heating capacity is out of range
   **   ~~~   ** Min Rated Vol Flow Per Watt=[4.027E-005], Rated Vol Flow Per Watt=[1.386E-004], Max Rated Vol Flow Per Watt=[8.056E-005]. See Input-Output Reference Manual for valid range.
   ** Warning ** Water heater = WATER HEATER TANK:  Recovery Efficiency and Energy Factor could not be calculated during the test for standard ratings
   **   ~~~   ** Setpoint was never recovered and/or heater never turned on
   ** Warning ** Check input. Pump nominal power or motor efficiency is set to 0, for pump=MAINS PRESSURE
   ** Warning ** AirflowNetwork::Solver::validate_distribution: Heat pump water heater is simulated along with an AirflowNetwork but is not included in the AirflowNetwork.
   ** Warning ** Output:Meter: invalid Key Name="ELECTRIC_RANGE:INTERIOREQUIPMENT:ELECTRICITY" - not found.
   ** Warning ** Output:Meter: invalid Key Name="ELECTRIC_DRYER:INTERIOREQUIPMENT:ELECTRICITY" - not found.
   ** Warning ** Output:Meter: invalid Key Name="HEATRECOVERY:ELECTRICITY" - not found.
   ** Warning ** Output:Meter: invalid Key Name="HEATING:NATURALGAS" - not found.
   ** Warning ** Output:Meter: invalid Key Name="WATERSYSTEMS:NATURALGAS" - not found.
   ** Warning ** Output:Meter: invalid Key Name="PROPANE:FACILITY" - not found.
   ** Warning ** Output:Meter: invalid Key Name="HEATING:PROPANE" - not found.
   ************* Testing Individual Branch Integrity
   ************* All Branches passed integrity testing
   ************* Testing Individual Supply Air Path Integrity
   ************* All Supply Air Paths passed integrity testing
   ************* Testing Individual Return Air Path Integrity
   ************* All Return Air Paths passed integrity testing
   ************* No node connection errors were found.
   ************* Beginning Simulation
   ** Warning ** CalcEquipmentFlowRates: "TOTAL HOT WATER LOAD" - Target water temperature is greater than the hot water temperature by (3.62 C)
   **   ~~~   **  Environment=EXTREME_WINTER, at Simulation time=01/20 06:00 - 06:15
   **   ~~~   ** ...target water temperature     = 53.33 C
   **   ~~~   ** ...hot water temperature        = 49.72 C
   **   ~~~   ** ...Target water temperature should be less than or equal to the hot water temperature. Verify temperature setpoints and schedules.
   ** Warning ** SimHVAC: Maximum iterations (20) exceeded for all HVAC loops, at ANNUAL, 03/11 15:45 - 16:00
   **   ~~~   ** The solution for one or more of the Air Loop HVAC systems did not appear to converge
   **   ~~~   ** Air System Named = CENTRAL SYSTEM did not converge for mass flow rate
   **   ~~~   ** Check values should be zero. Most Recent values listed first.
   **   ~~~   ** Demand-to-Supply interface mass flow rate check value iteration history trace: 7.602625E-002,7.602625E-002,7.602625E-002,7.602625E-002,7.602625E-002,7.602625E-002,7.602625E-002,7.602625E-002,7.602625E-002,7.602625E-002,
   **   ~~~   ** Supply-to-demand interface deck 1 mass flow rate check value iteration history trace: 7.602625E-002,7.602625E-002,7.602625E-002,7.602625E-002,7.602625E-002,7.602625E-002,7.602625E-002,7.602625E-002,7.602625E-002,7.602625E-002,
   **   ~~~   ** Air System Named = CENTRAL SYSTEM did not converge for energy
   **   ~~~   ** Check values should be zero. Most Recent values listed first.
   **   ~~~   ** Demand-to-Supply interface energy check value iteration history trace: 1500.007588,1500.007586,1500.007583,1500.007581,1500.007578,1500.007576,1500.007573,1500.007571,1500.007568,1500.007566,
   **   ~~~   ** Supply-to-demand interface deck 1 energy check value iteration history trace: 2633.446319,2633.446315,2633.446310,2633.446306,2633.446301,2633.446297,2633.446293,2633.446288,2633.446284,2633.446279,
   ** Warning ** SimHVAC: Maximum iterations (20) exceeded for all HVAC loops, at ANNUAL, 03/12 18:51 - 18:54
   **   ~~~   ** The solution for one or more of the Air Loop HVAC systems did not appear to converge
   **   ~~~   ** Air System Named = CENTRAL SYSTEM did not converge for mass flow rate
   **   ~~~   ** Check values should be zero. Most Recent values listed first.
   **   ~~~   ** Demand-to-Supply interface mass flow rate check value iteration history trace: 0.127021,0.127021,0.127021,0.127021,0.127021,0.127021,0.127021,0.127021,0.127021,0.127021,
   **   ~~~   ** Supply-to-demand interface deck 1 mass flow rate check value iteration history trace: 0.127021,0.127021,0.127021,0.127021,0.127021,0.127021,0.127021,0.127021,0.127021,0.127021,
   **   ~~~   ** Air System Named = CENTRAL SYSTEM did not converge for energy
   **   ~~~   ** Check values should be zero. Most Recent values listed first.
   **   ~~~   ** Demand-to-Supply interface energy check value iteration history trace: 2502.686697,2502.686694,2502.686690,2502.686687,2502.686683,2502.686679,2502.686676,2502.686672,2502.686669,2502.686665,
   **   ~~~   ** Supply-to-demand interface deck 1 energy check value iteration history trace: 3758.373250,3758.373244,3758.373239,3758.373234,3758.373228,3758.373223,3758.373217,3758.373212,3758.373206,3758.373201,
   ** Warning ** SimHVAC: Maximum iterations (20) exceeded for all HVAC loops, at ANNUAL, 03/24 08:35 - 08:38
   **   ~~~   ** The solution for one or more of the Air Loop HVAC systems did not appear to converge
   **   ~~~   ** Air System Named = CENTRAL SYSTEM did not converge for mass flow rate
   **   ~~~   ** Check values should be zero. Most Recent values listed first.
   **   ~~~   ** Demand-to-Supply interface mass flow rate check value iteration history trace: 8.817982E-002,8.817982E-002,8.817982E-002,8.817982E-002,8.817982E-002,8.817982E-002,8.817982E-002,8.817982E-002,8.817982E-002,8.817982E-002,
   **   ~~~   ** Supply-to-demand interface deck 1 mass flow rate check value iteration history trace: 8.817982E-002,8.817982E-002,8.817982E-002,8.817982E-002,8.817982E-002,8.817982E-002,8.817982E-002,8.817982E-002,8.817982E-002,8.817982E-002,
   **   ~~~   ** Air System Named = CENTRAL SYSTEM did not converge for energy
   **   ~~~   ** Check values should be zero. Most Recent values listed first.
   **   ~~~   ** Demand-to-Supply interface energy check value iteration history trace: 1747.436055,1747.436054,1747.436053,1747.436052,1747.436051,1747.436050,1747.436049,1747.436048,1747.436047,1747.436046,
   **   ~~~   ** Supply-to-demand interface deck 1 energy check value iteration history trace: 3084.470588,3084.470586,3084.470584,3084.470582,3084.470580,3084.470578,3084.470576,3084.470574,3084.470572,3084.470570,
   ** Warning ** SimHVAC: Maximum iterations (20) exceeded for all HVAC loops, at ANNUAL, 03/24 09:49 - 09:52
   **   ~~~   ** The solution for one or more of the Air Loop HVAC systems did not appear to converge
   **   ~~~   ** Air System Named = CENTRAL SYSTEM did not converge for mass flow rate
   **   ~~~   ** Check values should be zero. Most Recent values listed first.
   **   ~~~   ** Demand-to-Supply interface mass flow rate check value iteration history trace: 7.163403E-002,7.163403E-002,7.163403E-002,7.163403E-002,7.163403E-002,7.163403E-002,7.163403E-002,7.163403E-002,7.163403E-002,7.163403E-002,
   **   ~~~   ** Supply-to-demand interface deck 1 mass flow rate check value iteration history trace: 7.163403E-002,7.163403E-002,7.163403E-002,7.163403E-002,7.163403E-002,7.163403E-002,7.163403E-002,7.163403E-002,7.163403E-002,7.163403E-002,
   **   ~~~   ** Air System Named = CENTRAL SYSTEM did not converge for energy
   **   ~~~   ** Check values should be zero. Most Recent values listed first.
   **   ~~~   ** Demand-to-Supply interface energy check value iteration history trace: 1410.918060,1410.918059,1410.918058,1410.918057,1410.918056,1410.918055,1410.918054,1410.918053,1410.918052,1410.918051,
   **   ~~~   ** Supply-to-demand interface deck 1 energy check value iteration history trace: 2564.446861,2564.446859,2564.446858,2564.446856,2564.446854,2564.446852,2564.446851,2564.446849,2564.446847,2564.446845,
   ** Warning ** SimHVAC: Maximum iterations (20) exceeded for all HVAC loops, at ANNUAL, 03/29 17:00 - 17:15
   **   ~~~   ** The solution for one or more of the Air Loop HVAC systems did not appear to converge
   **   ~~~   ** Air System Named = CENTRAL SYSTEM did not converge for mass flow rate
   **   ~~~   ** Check values should be zero. Most Recent values listed first.
   **   ~~~   ** Demand-to-Supply interface mass flow rate check value iteration history trace: 8.875099E-002,8.875099E-002,8.875099E-002,8.875099E-002,8.875099E-002,8.875099E-002,8.875099E-002,8.875099E-002,8.875099E-002,8.875099E-002,
   **   ~~~   ** Supply-to-demand interface deck 1 mass flow rate check value iteration history trace: 8.875099E-002,8.875099E-002,8.875099E-002,8.875099E-002,8.875099E-002,8.875099E-002,8.875099E-002,8.875099E-002,8.875099E-002,8.875099E-002,
   **   ~~~   ** Air System Named = CENTRAL SYSTEM did not converge for energy
   **   ~~~   ** Check values should be zero. Most Recent values listed first.
   **   ~~~   ** Demand-to-Supply interface energy check value iteration history trace: 1758.597348,1758.597347,1758.597345,1758.597344,1758.597343,1758.597342,1758.597340,1758.597339,1758.597338,1758.597336,
   **   ~~~   ** Supply-to-demand interface deck 1 energy check value iteration history trace: 3016.971180,3016.971178,3016.971176,3016.971174,3016.971171,3016.971169,3016.971167,3016.971165,3016.971163,3016.971160,
   ** Warning ** SimHVAC: Maximum iterations (20) exceeded for all HVAC loops, at ANNUAL, 04/02 18:45 - 19:00
   **   ~~~   ** The solution for one or more of the Air Loop HVAC systems did not appear to converge
   **   ~~~   ** Air System Named = CENTRAL SYSTEM did not converge for mass flow rate
   **   ~~~   ** Check values should be zero. Most Recent values listed first.
   **   ~~~   ** Demand-to-Supply interface mass flow rate check value iteration history trace: 8.132799E-002,8.132799E-002,8.132799E-002,8.132799E-002,8.132799E-002,8.132799E-002,8.132799E-002,8.132799E-002,8.132799E-002,8.132799E-002,
   **   ~~~   ** Supply-to-demand interface deck 1 mass flow rate check value iteration history trace: 8.132799E-002,8.132799E-002,8.132799E-002,8.132799E-002,8.132799E-002,8.132799E-002,8.132799E-002,8.132799E-002,8.132799E-002,8.132799E-002,
   **   ~~~   ** Air System Named = CENTRAL SYSTEM did not converge for energy
   **   ~~~   ** Check values should be zero. Most Recent values listed first.
   **   ~~~   ** Demand-to-Supply interface energy check value iteration history trace: 1605.790678,1605.790676,1605.790674,1605.790672,1605.790671,1605.790669,1605.790667,1605.790665,1605.790663,1605.790662,
   **   ~~~   ** Supply-to-demand interface deck 1 energy check value iteration history trace: 2759.966892,2759.966889,2759.966886,2759.966883,2759.966880,2759.966877,2759.966874,2759.966870,2759.966867,2759.966864,
   ** Warning ** SimHVAC: Maximum iterations (20) exceeded for all HVAC loops, at ANNUAL, 04/07 09:15 - 09:18
   **   ~~~   ** The solution for one or more of the Air Loop HVAC systems did not appear to converge
   **   ~~~   ** Air System Named = CENTRAL SYSTEM did not converge for mass flow rate
   **   ~~~   ** Check values should be zero. Most Recent values listed first.
   **   ~~~   ** Demand-to-Supply interface mass flow rate check value iteration history trace: 8.590079E-002,8.590079E-002,8.590079E-002,8.590079E-002,8.590079E-002,8.590079E-002,8.590079E-002,8.590079E-002,8.590079E-002,8.590079E-002,
   **   ~~~   ** Supply-to-demand interface deck 1 mass flow rate check value iteration history trace: 8.590079E-002,8.590079E-002,8.590079E-002,8.590079E-002,8.590079E-002,8.590079E-002,8.590079E-002,8.590079E-002,8.590079E-002,8.590079E-002,
   **   ~~~   ** Air System Named = CENTRAL SYSTEM did not converge for energy
   **   ~~~   ** Check values should be zero. Most Recent values listed first.
   **   ~~~   ** Demand-to-Supply interface energy check value iteration history trace: 1702.210581,1702.210579,1702.210577,1702.210576,1702.210574,1702.210573,1702.210571,1702.210569,1702.210568,1702.210566,
   **   ~~~   ** Supply-to-demand interface deck 1 energy check value iteration history trace: 2904.197856,2904.197853,2904.197851,2904.197848,2904.197845,2904.197842,2904.197840,2904.197837,2904.197834,2904.197831,
   ** Warning ** SimHVAC: Maximum iterations (20) exceeded for all HVAC loops, at ANNUAL, 04/08 11:15 - 11:30
   **   ~~~   ** The solution for one or more of the Air Loop HVAC systems did not appear to converge
   **   ~~~   ** Air System Named = CENTRAL SYSTEM did not converge for mass flow rate
   **   ~~~   ** Check values should be zero. Most Recent values listed first.
   **   ~~~   ** Demand-to-Supply interface mass flow rate check value iteration history trace: 6.361223E-002,6.361223E-002,6.361223E-002,6.361223E-002,6.361223E-002,6.361223E-002,6.361223E-002,6.361223E-002,6.361223E-002,6.361223E-002,
   **   ~~~   ** Supply-to-demand interface deck 1 mass flow rate check value iteration history trace: 6.361223E-002,6.361223E-002,6.361223E-002,6.361223E-002,6.361223E-002,6.361223E-002,6.361223E-002,6.361223E-002,6.361223E-002,6.361223E-002,
   **   ~~~   ** Air System Named = CENTRAL SYSTEM did not converge for energy
   **   ~~~   ** Check values should be zero. Most Recent values listed first.
   **   ~~~   ** Demand-to-Supply interface energy check value iteration history trace: 1259.067748,1259.067747,1259.067746,1259.067745,1259.067744,1259.067743,1259.067742,1259.067741,1259.067740,1259.067739,
   **   ~~~   ** Supply-to-demand interface deck 1 energy check value iteration history trace: 2244.323647,2244.323645,2244.323644,2244.323642,2244.323640,2244.323638,2244.323636,2244.323634,2244.323633,2244.323631,
   ** Warning ** SimHVAC: Maximum iterations (20) exceeded for all HVAC loops, at ANNUAL, 04/24 09:23 - 09:25
   **   ~~~   ** The solution for one or more of the Air Loop HVAC systems did not appear to converge
   **   ~~~   ** Air System Named = CENTRAL SYSTEM did not converge for mass flow rate
   **   ~~~   ** Check values should be zero. Most Recent values listed first.
   **   ~~~   ** Demand-to-Supply interface mass flow rate check value iteration history trace: 7.706347E-002,7.706347E-002,7.706347E-002,7.706347E-002,7.706347E-002,7.706347E-002,7.706347E-002,7.706347E-002,7.706347E-002,7.706347E-002,
   **   ~~~   ** Supply-to-demand interface deck 1 mass flow rate check value iteration history trace: 7.706347E-002,7.706347E-002,7.706347E-002,7.706347E-002,7.706347E-002,7.706347E-002,7.706347E-002,7.706347E-002,7.706347E-002,7.706347E-002,
   **   ~~~   ** Air System Named = CENTRAL SYSTEM did not converge for energy
   **   ~~~   ** Check values should be zero. Most Recent values listed first.
   **   ~~~   ** Demand-to-Supply interface energy check value iteration history trace: 1525.511989,1525.511989,1525.511988,1525.511987,1525.511986,1525.511986,1525.511985,1525.511984,1525.511983,1525.511983,
   **   ~~~   ** Supply-to-demand interface deck 1 energy check value iteration history trace: 2734.150626,2734.150624,2734.150623,2734.150621,2734.150620,2734.150619,2734.150617,2734.150616,2734.150615,2734.150613,
   ** Warning ** SimHVAC: Maximum iterations (20) exceeded for all HVAC loops, at ANNUAL, 04/25 07:15 - 07:30
   **   ~~~   ** The solution for one or more of the Air Loop HVAC systems did not appear to converge
   **   ~~~   ** Air System Named = CENTRAL SYSTEM did not converge for mass flow rate
   **   ~~~   ** Check values should be zero. Most Recent values listed first.
   **   ~~~   ** Demand-to-Supply interface mass flow rate check value iteration history trace: 7.988819E-002,7.988819E-002,7.988819E-002,7.988819E-002,7.988819E-002,7.988819E-002,7.988819E-002,7.988819E-002,7.988819E-002,7.988819E-002,
   **   ~~~   ** Supply-to-demand interface deck 1 mass flow rate check value iteration history trace: 7.988819E-002,7.988819E-002,7.988819E-002,7.988819E-002,7.988819E-002,7.988819E-002,7.988819E-002,7.988819E-002,7.988819E-002,7.988819E-002,
   **   ~~~   ** Air System Named = CENTRAL SYSTEM did not converge for energy
   **   ~~~   ** Check values should be zero. Most Recent values listed first.
   **   ~~~   ** Demand-to-Supply interface energy check value iteration history trace: 1582.994792,1582.994792,1582.994791,1582.994791,1582.994790,1582.994789,1582.994789,1582.994788,1582.994788,1582.994787,
   **   ~~~   ** Supply-to-demand interface deck 1 energy check value iteration history trace: 2859.753606,2859.753605,2859.753604,2859.753603,2859.753602,2859.753601,2859.753600,2859.753599,2859.753599,2859.753598,
   ** Warning ** SimHVAC: Maximum iterations (20) exceeded for all HVAC loops, at ANNUAL, 04/25 07:15 - 07:20
   **   ~~~   ** The solution for one or more of the Air Loop HVAC systems did not appear to converge
   **   ~~~   ** Air System Named = CENTRAL SYSTEM did not converge for mass flow rate
   **   ~~~   ** Check values should be zero. Most Recent values listed first.
   **   ~~~   ** Demand-to-Supply interface mass flow rate check value iteration history trace: 8.039355E-002,8.039355E-002,8.039355E-002,8.039355E-002,8.039355E-002,8.039355E-002,8.039355E-002,8.039355E-002,8.039355E-002,8.039355E-002,
   **   ~~~   ** Supply-to-demand interface deck 1 mass flow rate check value iteration history trace: 8.039355E-002,8.039355E-002,8.039355E-002,8.039355E-002,8.039355E-002,8.039355E-002,8.039355E-002,8.039355E-002,8.039355E-002,8.039355E-002,
   **   ~~~   ** Air System Named = CENTRAL SYSTEM did not converge for energy
   **   ~~~   ** Check values should be zero. Most Recent values listed first.
   **   ~~~   ** Demand-to-Supply interface energy check value iteration history trace: 1593.012077,1593.012077,1593.012076,1593.012075,1593.012075,1593.012074,1593.012074,1593.012073,1593.012073,1593.012072,
   **   ~~~   ** Supply-to-demand interface deck 1 energy check value iteration history trace: 2877.826985,2877.826984,2877.826983,2877.826982,2877.826981,2877.826980,2877.826979,2877.826978,2877.826977,2877.826976,
   ** Warning ** SimHVAC: Maximum iterations (20) exceeded for all HVAC loops, at ANNUAL, 04/26 16:45 - 17:00
   **   ~~~   ** The solution for one or more of the Air Loop HVAC systems did not appear to converge
   **   ~~~   ** Air System Named = CENTRAL SYSTEM did not converge for mass flow rate
   **   ~~~   ** Check values should be zero. Most Recent values listed first.
   **   ~~~   ** Demand-to-Supply interface mass flow rate check value iteration history trace: 7.594711E-002,7.594710E-002,7.594710E-002,7.594710E-002,7.594710E-002,7.594710E-002,7.594710E-002,7.594710E-002,7.594710E-002,7.594710E-002,
   **   ~~~   ** Supply-to-demand interface deck 1 mass flow rate check value iteration history trace: 7.594711E-002,7.594710E-002,7.594710E-002,7.594710E-002,7.594710E-002,7.594710E-002,7.594710E-002,7.594710E-002,7.594710E-002,7.594710E-002,
   **   ~~~   ** Air System Named = CENTRAL SYSTEM did not converge for energy
   **   ~~~   ** Check values should be zero. Most Recent values listed first.
   **   ~~~   ** Demand-to-Supply interface energy check value iteration history trace: 1501.948274,1501.948273,1501.948272,1501.948271,1501.948270,1501.948268,1501.948267,1501.948266,1501.948265,1501.948263,
   **   ~~~   ** Supply-to-demand interface deck 1 energy check value iteration history trace: 2658.424836,2658.424834,2658.424832,2658.424830,2658.424828,2658.424826,2658.424823,2658.424821,2658.424819,2658.424817,
   ** Warning ** SimHVAC: Maximum iterations (20) exceeded for all HVAC loops, at ANNUAL, 04/27 09:17 - 09:20
   **   ~~~   ** The solution for one or more of the Air Loop HVAC systems did not appear to converge
   **   ~~~   ** Air System Named = CENTRAL SYSTEM did not converge for mass flow rate
   **   ~~~   ** Check values should be zero. Most Recent values listed first.
   **   ~~~   ** Demand-to-Supply interface mass flow rate check value iteration history trace: 7.875311E-002,7.875311E-002,7.875311E-002,7.875311E-002,7.875311E-002,7.875311E-002,7.875311E-002,7.875311E-002,7.875311E-002,7.875311E-002,
   **   ~~~   ** Supply-to-demand interface deck 1 mass flow rate check value iteration history trace: 7.875311E-002,7.875311E-002,7.875311E-002,7.875311E-002,7.875311E-002,7.875311E-002,7.875311E-002,7.875311E-002,7.875311E-002,7.875311E-002,
   **   ~~~   ** Air System Named = CENTRAL SYSTEM did not converge for energy
   **   ~~~   ** Check values should be zero. Most Recent values listed first.
   **   ~~~   ** Demand-to-Supply interface energy check value iteration history trace: 1560.651257,1560.651255,1560.651252,1560.651250,1560.651247,1560.651245,1560.651243,1560.651240,1560.651238,1560.651235,
   **   ~~~   ** Supply-to-demand interface deck 1 energy check value iteration history trace: 2510.210868,2510.210864,2510.210860,2510.210856,2510.210852,2510.210848,2510.210844,2510.210840,2510.210836,2510.210833,
   ** Warning ** SimHVAC: Maximum iterations (20) exceeded for all HVAC loops, at ANNUAL, 04/29 11:30 - 11:45
   **   ~~~   ** The solution for one or more of the Air Loop HVAC systems did not appear to converge
   **   ~~~   ** Air System Named = CENTRAL SYSTEM did not converge for mass flow rate
   **   ~~~   ** Check values should be zero. Most Recent values listed first.
   **   ~~~   ** Demand-to-Supply interface mass flow rate check value iteration history trace: 5.645612E-002,5.645612E-002,5.645612E-002,5.645612E-002,5.645612E-002,5.645612E-002,5.645612E-002,5.645612E-002,5.645612E-002,5.645612E-002,
   **   ~~~   ** Supply-to-demand interface deck 1 mass flow rate check value iteration history trace: 5.645612E-002,5.645612E-002,5.645612E-002,5.645612E-002,5.645612E-002,5.645612E-002,5.645612E-002,5.645612E-002,5.645612E-002,5.645612E-002,
   **   ~~~   ** Air System Named = CENTRAL SYSTEM did not converge for energy
   **   ~~~   ** Check values should be zero. Most Recent values listed first.
   **   ~~~   ** Demand-to-Supply interface energy check value iteration history trace: 1100.597225,1100.597224,1100.597222,1100.597221,1100.597220,1100.597218,1100.597217,1100.597216,1100.597214,1100.597213,
   **   ~~~   ** Supply-to-demand interface deck 1 energy check value iteration history trace: 1963.180944,1963.180942,1963.180939,1963.180937,1963.180935,1963.180932,1963.180930,1963.180928,1963.180925,1963.180923,
   ************* Simulation Error Summary *************
   ** Warning ** The following Report Variables were requested but not generated -- check.rdd file
   **   ~~~   ** Either the IDF did not contain these elements, the variable name is misspelled,
   **   ~~~   ** or the requested variable is an advanced output which requires Output : Diagnostics, DisplayAdvancedReportVariables;
   ************* Key=*, VarName=BASEBOARD TOTAL HEATING ENERGY, Frequency=
   ************* Key=*, VarName=WATER HEATER NATURALGAS ENERGY, Frequency=
   ************* Key=*, VarName=COOLING COIL TOTAL HEATING ENERGY, Frequency=
   ************* There are 34 unused schedules in input.
   ************* There are 388 unused week schedules in input.
   ************* There are 396 unused day schedules in input.
   ************* Use Output:Diagnostics,DisplayUnusedSchedules; to see them.
   *************
   ************* ===== Recurring Error Summary =====
   ************* The following recurring error messages occurred.
   *************
   *************  ** Warning ** "TOTAL HOT WATER LOAD" - Target water temperature should be less than or equal to the hot water temperature error continues...
   *************  **   ~~~   **   This error occurred 91515 total times;
   *************  **   ~~~   **   during Warmup 0 times;
   *************  **   ~~~   **   during Sizing 0 times.
   *************  **   ~~~   **   Max=21.682447  Min=3.382590E-004
   *************
   *************  ** Warning ** SimHVAC: Exceeding Maximum iterations for all HVAC loops, during ANNUAL continues
   *************  **   ~~~   **   This error occurred 12 total times;
   *************  **   ~~~   **   during Warmup 0 times;
   *************  **   ~~~   **   during Sizing 0 times.
   *************
   *************
   ************* ===== Final Error Summary =====
   ************* The following error categories occurred.  Consider correcting or noting.
   ************* Nominally Unused Constructions
   ************* ..The nominally unused constructions warning is provided to alert you to potential conditions that can cause
   ************* ..extra time during simulation. Each construction is calculated by the algorithm indicated in the HeatBalanceAlgorithm
   ************* ..object. You may remove the constructions indicated (when you use the DisplayExtraWarnings option).
   *************
   ************* EnergyPlus Warmup Error Summary. During Warmup: 0 Warning; 0 Severe Errors.
   ************* EnergyPlus Sizing Error Summary. During Sizing: 4 Warning; 0 Severe Errors.
   ************* EnergyPlus Completed Successfully-- 91558 Warning; 0 Severe Errors; Elapsed Time=00hr 05min  3.33sec
