Program Version,EnergyPlus, Version 22.2.0-c249759bad, YMD=2023.09.01 19:12,
   ************* Beginning Zone Sizing Calculations
   ** Warning ** ProcessScheduleInput: Schedule:Constant="ALWAYS ON DISCRETE", Schedule Type Limits Name="ONOFF" not found -- will not be validated
   ** Warning ** Foundation:Kiva="KIVA FOUNDATION", no Interior Horizontal Insulation Material Name defined
   **   ~~~   ** Interior Horizontal Insulation Depth will not be used.
   ** Warning ** CheckUsedConstructions: There are 15 nominally unused constructions in input.
   **   ~~~   ** Each Unused construction is shown.
   ************* Construction=INTERIOR FLOOR
   ************* Construction=INTERIOR WINDOW
   ************* Construction=EXTERIOR DOOR
   ************* Construction=INTERIOR DOOR
   ************* Construction=GABLE CONSTRUCTION
   ************* Construction=CRAWL_FLOOR
   ************* Construction=INSULATED PIPE
   ************* Construction=PLAIN PIPE
   ************* Construction=TDD PIPE
   ************* Construction=TDD DOME
   ************* Construction=TDD DIFFUSER
   ************* Construction=CRAWL WALL
   ************* Construction=CEILING-FLOOR-LAYER
   ************* Construction=SLAB CONSTRUCTION W FULL R10 INSULATION
   ************* Construction=SLAB CONSTRUCTION W FULL R5 INSULATION
   ** Warning ** GetDXCoils: Coil:Heating:DX:SingleSpeed="DX_HEATING_COIL" curve values
   **   ~~~   ** ... Defrost Energy Input Ratio Function of Temperature Curve Name = DEFROSTEIR output is not equal to 1.0 (+ or - 10%) at rated conditions.
   **   ~~~   ** ... Curve output at rated conditions = 0.152
   ************* Beginning System Sizing Calculations
   ************* Beginning Plant Sizing Calculations
   ** Warning ** Coil:WaterHeating:AirToWaterHeatPump:Wrapped "HEAT PUMP WATER HEATER EVAPORATOR": Rated air volume flow rate per watt of rated total water heating capacity is out of range
   **   ~~~   ** Min Rated Vol Flow Per Watt=[4.027E-005], Rated Vol Flow Per Watt=[1.510E-004], Max Rated Vol Flow Per Watt=[8.056E-005]. See Input-Output Reference Manual for valid range.
   ************* SizeFan: : Potential issue with equipment sizing for Fan:OnOff HEAT PUMP WATER HEATER FAN
   **   ~~~   ** User-Specified Maximum Flow Rate [m3/s] = 0.22653
   **   ~~~   ** differs from Design Size Maximum Flow Rate [m3/s] = 7.55250E-002
   **   ~~~   ** This may, or may not, indicate mismatched component sizes.
   **   ~~~   ** Verify that the value entered is intended and is consistent with other components.
   ** Warning ** Water heater = WATER HEATER TANK:  Recovery Efficiency and Energy Factor could not be calculated during the test for standard ratings
   **   ~~~   ** Setpoint was never recovered and/or heater never turned on
   ** Warning ** Check input. Pump nominal power or motor efficiency is set to 0, for pump=MAINS PRESSURE
   ** Warning ** Output:Meter: invalid Key Name="ELECTRIC_RANGE:INTERIOREQUIPMENT:ELECTRICITY" - not found.
   ** Warning ** Output:Meter: invalid Key Name="ELECTRIC_DRYER:INTERIOREQUIPMENT:ELECTRICITY" - not found.
   ** Warning ** Output:Meter: invalid Key Name="HEATRECOVERY:ELECTRICITY" - not found.
   ** Warning ** Output:Meter: invalid Key Name="HEATING:NATURALGAS" - not found.
   ** Warning ** Output:Meter: invalid Key Name="WATERSYSTEMS:NATURALGAS" - not found.
   ** Warning ** Output:Meter: invalid Key Name="PROPANE:FACILITY" - not found.
   ** Warning ** Output:Meter: invalid Key Name="HEATING:PROPANE" - not found.
   ************* Testing Individual Branch Integrity
   ************* All Branches passed integrity testing
   ************* Testing Individual Supply Air Path Integrity
   ************* All Supply Air Paths passed integrity testing
   ************* Testing Individual Return Air Path Integrity
   ************* All Return Air Paths passed integrity testing
   ************* No node connection errors were found.
   ************* Beginning Simulation
   ** Warning ** AirflowNetwork::Solver::validate_distribution: Heat pump water heater is simulated along with an AirflowNetwork but is not included in the AirflowNetwork.
   ** Warning ** CalcEquipmentFlowRates: "TOTAL HOT WATER LOAD" - Target water temperature is greater than the hot water temperature by (1.70 C)
   **   ~~~   **  Environment=EXTREME_WINTER, at Simulation time=01/29 06:45 - 07:00
   **   ~~~   ** ...target water temperature     = 53.33 C
   **   ~~~   ** ...hot water temperature        = 51.64 C
   **   ~~~   ** ...Target water temperature should be less than or equal to the hot water temperature. Verify temperature setpoints and schedules.
   ** Warning ** SimHVAC: Maximum iterations (20) exceeded for all HVAC loops, at ANNUAL, 01/07 09:04 - 09:08
   **   ~~~   ** The solution for one or more of the Air Loop HVAC systems did not appear to converge
   **   ~~~   ** Air System Named = CENTRAL SYSTEM did not converge for mass flow rate
   **   ~~~   ** Check values should be zero. Most Recent values listed first.
   **   ~~~   ** Demand-to-Supply interface mass flow rate check value iteration history trace: 6.103195E-002,6.103195E-002,6.103195E-002,6.103195E-002,6.103195E-002,6.103195E-002,6.103195E-002,6.103195E-002,6.103195E-002,6.103195E-002,
   **   ~~~   ** Supply-to-demand interface deck 1 mass flow rate check value iteration history trace: 6.103195E-002,6.103195E-002,6.103195E-002,6.103195E-002,6.103195E-002,6.103195E-002,6.103195E-002,6.103195E-002,6.103195E-002,6.103195E-002,
   **   ~~~   ** Air System Named = CENTRAL SYSTEM did not converge for energy
   **   ~~~   ** Check values should be zero. Most Recent values listed first.
   **   ~~~   ** Demand-to-Supply interface energy check value iteration history trace: 1209.458971,1209.458971,1209.458971,1209.458971,1209.458971,1209.458971,1209.458971,1209.458971,1209.458970,1209.458970,
   **   ~~~   ** Supply-to-demand interface deck 1 energy check value iteration history trace: 2062.406654,2062.406653,2062.406653,2062.406653,2062.406653,2062.406653,2062.406653,2062.406653,2062.406653,2062.406653,
   ** Warning ** SimHVAC: Maximum iterations (20) exceeded for all HVAC loops, at ANNUAL, 01/19 09:40 - 09:45
   **   ~~~   ** The solution for one or more of the Air Loop HVAC systems did not appear to converge
   **   ~~~   ** Air System Named = CENTRAL SYSTEM did not converge for mass flow rate
   **   ~~~   ** Check values should be zero. Most Recent values listed first.
   **   ~~~   ** Demand-to-Supply interface mass flow rate check value iteration history trace: 7.183332E-002,7.183332E-002,7.183332E-002,7.183332E-002,7.183332E-002,7.183332E-002,7.183332E-002,7.183332E-002,7.183332E-002,7.183332E-002,
   **   ~~~   ** Supply-to-demand interface deck 1 mass flow rate check value iteration history trace: 7.183332E-002,7.183332E-002,7.183332E-002,7.183332E-002,7.183332E-002,7.183332E-002,7.183332E-002,7.183332E-002,7.183332E-002,7.183332E-002,
   **   ~~~   ** Air System Named = CENTRAL SYSTEM did not converge for energy
   **   ~~~   ** Check values should be zero. Most Recent values listed first.
   **   ~~~   ** Demand-to-Supply interface energy check value iteration history trace: 1415.614658,1415.614657,1415.614657,1415.614657,1415.614657,1415.614657,1415.614657,1415.614657,1415.614657,1415.614657,
   **   ~~~   ** Supply-to-demand interface deck 1 energy check value iteration history trace: 2557.771606,2557.771606,2557.771606,2557.771606,2557.771606,2557.771605,2557.771605,2557.771605,2557.771605,2557.771605,
   ** Warning ** SimHVAC: Maximum iterations (20) exceeded for all HVAC loops, at ANNUAL, 01/24 18:15 - 18:22
   **   ~~~   ** The solution for one or more of the Air Loop HVAC systems did not appear to converge
   **   ~~~   ** Air System Named = CENTRAL SYSTEM did not converge for mass flow rate
   **   ~~~   ** Check values should be zero. Most Recent values listed first.
   **   ~~~   ** Demand-to-Supply interface mass flow rate check value iteration history trace: 6.559800E-002,6.559800E-002,6.559800E-002,6.559800E-002,6.559800E-002,6.559800E-002,6.559800E-002,6.559800E-002,6.559800E-002,6.559800E-002,
   **   ~~~   ** Supply-to-demand interface deck 1 mass flow rate check value iteration history trace: 6.559800E-002,6.559800E-002,6.559800E-002,6.559800E-002,6.559800E-002,6.559800E-002,6.559800E-002,6.559800E-002,6.559800E-002,6.559800E-002,
   **   ~~~   ** Air System Named = CENTRAL SYSTEM did not converge for energy
   **   ~~~   ** Check values should be zero. Most Recent values listed first.
   **   ~~~   ** Demand-to-Supply interface energy check value iteration history trace: 1293.259477,1293.259476,1293.259476,1293.259476,1293.259476,1293.259476,1293.259476,1293.259476,1293.259476,1293.259476,
   **   ~~~   ** Supply-to-demand interface deck 1 energy check value iteration history trace: 2199.946189,2199.946189,2199.946189,2199.946189,2199.946188,2199.946188,2199.946188,2199.946188,2199.946188,2199.946188,
   ** Warning ** SimHVAC: Maximum iterations (20) exceeded for all HVAC loops, at ANNUAL, 01/28 17:00 - 17:15
   **   ~~~   ** The solution for one or more of the Air Loop HVAC systems did not appear to converge
   **   ~~~   ** Air System Named = CENTRAL SYSTEM did not converge for mass flow rate
   **   ~~~   ** Check values should be zero. Most Recent values listed first.
   **   ~~~   ** Demand-to-Supply interface mass flow rate check value iteration history trace: 7.957791E-002,7.957791E-002,7.957791E-002,7.957791E-002,7.957791E-002,7.957791E-002,7.957791E-002,7.957791E-002,7.957791E-002,7.957791E-002,
   **   ~~~   ** Supply-to-demand interface deck 1 mass flow rate check value iteration history trace: 7.957791E-002,7.957791E-002,7.957791E-002,7.957791E-002,7.957791E-002,7.957791E-002,7.957791E-002,7.957791E-002,7.957791E-002,7.957791E-002,
   **   ~~~   ** Air System Named = CENTRAL SYSTEM did not converge for energy
   **   ~~~   ** Check values should be zero. Most Recent values listed first.
   **   ~~~   ** Demand-to-Supply interface energy check value iteration history trace: 1576.246115,1576.246115,1576.246114,1576.246114,1576.246114,1576.246114,1576.246114,1576.246114,1576.246114,1576.246114,
   **   ~~~   ** Supply-to-demand interface deck 1 energy check value iteration history trace: 2380.667325,2380.667324,2380.667324,2380.667324,2380.667324,2380.667324,2380.667323,2380.667323,2380.667323,2380.667323,
   ** Warning ** SimHVAC: Maximum iterations (20) exceeded for all HVAC loops, at ANNUAL, 03/07 06:00 - 06:15
   **   ~~~   ** The solution for one or more of the Air Loop HVAC systems did not appear to converge
   **   ~~~   ** Air System Named = CENTRAL SYSTEM did not converge for mass flow rate
   **   ~~~   ** Check values should be zero. Most Recent values listed first.
   **   ~~~   ** Demand-to-Supply interface mass flow rate check value iteration history trace: 6.241516E-002,6.241516E-002,6.241516E-002,6.241516E-002,6.241516E-002,6.241516E-002,6.241516E-002,6.241516E-002,6.241516E-002,6.241516E-002,
   **   ~~~   ** Supply-to-demand interface deck 1 mass flow rate check value iteration history trace: 6.241516E-002,6.241516E-002,6.241516E-002,6.241516E-002,6.241516E-002,6.241516E-002,6.241516E-002,6.241516E-002,6.241516E-002,6.241516E-002,
   **   ~~~   ** Air System Named = CENTRAL SYSTEM did not converge for energy
   **   ~~~   ** Check values should be zero. Most Recent values listed first.
   **   ~~~   ** Demand-to-Supply interface energy check value iteration history trace: 1236.742908,1236.742908,1236.742908,1236.742908,1236.742908,1236.742908,1236.742908,1236.742908,1236.742908,1236.742908,
   **   ~~~   ** Supply-to-demand interface deck 1 energy check value iteration history trace: 2116.716033,2116.716033,2116.716033,2116.716033,2116.716032,2116.716032,2116.716032,2116.716032,2116.716032,2116.716032,
   ** Warning ** SimHVAC: Maximum iterations (20) exceeded for all HVAC loops, at ANNUAL, 03/07 07:00 - 07:15
   **   ~~~   ** The solution for one or more of the Air Loop HVAC systems did not appear to converge
   **   ~~~   ** Air System Named = CENTRAL SYSTEM did not converge for mass flow rate
   **   ~~~   ** Check values should be zero. Most Recent values listed first.
   **   ~~~   ** Demand-to-Supply interface mass flow rate check value iteration history trace: 6.016956E-002,6.016956E-002,6.016956E-002,6.016956E-002,6.016956E-002,6.016956E-002,6.016956E-002,6.016956E-002,6.016956E-002,6.016956E-002,
   **   ~~~   ** Supply-to-demand interface deck 1 mass flow rate check value iteration history trace: 6.016956E-002,6.016956E-002,6.016956E-002,6.016956E-002,6.016956E-002,6.016956E-002,6.016956E-002,6.016956E-002,6.016956E-002,6.016956E-002,
   **   ~~~   ** Air System Named = CENTRAL SYSTEM did not converge for energy
   **   ~~~   ** Check values should be zero. Most Recent values listed first.
   **   ~~~   ** Demand-to-Supply interface energy check value iteration history trace: 1192.014767,1192.014767,1192.014767,1192.014767,1192.014767,1192.014767,1192.014767,1192.014767,1192.014767,1192.014767,
   **   ~~~   ** Supply-to-demand interface deck 1 energy check value iteration history trace: 2050.129031,2050.129031,2050.129031,2050.129031,2050.129031,2050.129031,2050.129031,2050.129031,2050.129030,2050.129030,
   ** Warning ** SimHVAC: Maximum iterations (20) exceeded for all HVAC loops, at ANNUAL, 03/07 07:00 - 07:08
   **   ~~~   ** The solution for one or more of the Air Loop HVAC systems did not appear to converge
   **   ~~~   ** Air System Named = CENTRAL SYSTEM did not converge for mass flow rate
   **   ~~~   ** Check values should be zero. Most Recent values listed first.
   **   ~~~   ** Demand-to-Supply interface mass flow rate check value iteration history trace: 6.315127E-002,6.315127E-002,6.315127E-002,6.315127E-002,6.315127E-002,6.315127E-002,6.315127E-002,6.315127E-002,6.315127E-002,6.315127E-002,
   **   ~~~   ** Supply-to-demand interface deck 1 mass flow rate check value iteration history trace: 6.315127E-002,6.315127E-002,6.315127E-002,6.315127E-002,6.315127E-002,6.315127E-002,6.315127E-002,6.315127E-002,6.315127E-002,6.315127E-002,
   **   ~~~   ** Air System Named = CENTRAL SYSTEM did not converge for energy
   **   ~~~   ** Check values should be zero. Most Recent values listed first.
   **   ~~~   ** Demand-to-Supply interface energy check value iteration history trace: 1251.085085,1251.085085,1251.085085,1251.085085,1251.085085,1251.085085,1251.085085,1251.085085,1251.085085,1251.085085,
   **   ~~~   ** Supply-to-demand interface deck 1 energy check value iteration history trace: 2151.709290,2151.709290,2151.709290,2151.709290,2151.709289,2151.709289,2151.709289,2151.709289,2151.709289,2151.709289,
   ** Warning ** SimHVAC: Maximum iterations (20) exceeded for all HVAC loops, at ANNUAL, 03/29 10:45 - 11:00
   **   ~~~   ** The solution for one or more of the Air Loop HVAC systems did not appear to converge
   **   ~~~   ** Air System Named = CENTRAL SYSTEM did not converge for mass flow rate
   **   ~~~   ** Check values should be zero. Most Recent values listed first.
   **   ~~~   ** Demand-to-Supply interface mass flow rate check value iteration history trace: 6.974094E-002,6.974094E-002,6.974094E-002,6.974094E-002,6.974094E-002,6.974094E-002,6.974094E-002,6.974094E-002,6.974094E-002,6.974094E-002,
   **   ~~~   ** Supply-to-demand interface deck 1 mass flow rate check value iteration history trace: 6.974094E-002,6.974094E-002,6.974094E-002,6.974094E-002,6.974094E-002,6.974094E-002,6.974094E-002,6.974094E-002,6.974094E-002,6.974094E-002,
   **   ~~~   ** Air System Named = CENTRAL SYSTEM did not converge for energy
   **   ~~~   ** Check values should be zero. Most Recent values listed first.
   **   ~~~   ** Demand-to-Supply interface energy check value iteration history trace: 1628.882995,1628.882995,1628.882995,1628.882996,1628.882996,1628.882997,1628.882997,1628.882997,1628.882998,1628.882998,
   **   ~~~   ** Supply-to-demand interface deck 1 energy check value iteration history trace: 864.104895,864.104895,864.104896,864.104896,864.104896,864.104896,864.104896,864.104897,864.104897,864.104897,
   ** Warning ** SimHVAC: Maximum iterations (20) exceeded for all HVAC loops, at ANNUAL, 04/08 12:45 - 13:00
   **   ~~~   ** The solution for one or more of the Air Loop HVAC systems did not appear to converge
   **   ~~~   ** Air System Named = CENTRAL SYSTEM did not converge for mass flow rate
   **   ~~~   ** Check values should be zero. Most Recent values listed first.
   **   ~~~   ** Demand-to-Supply interface mass flow rate check value iteration history trace: 6.287355E-002,6.287355E-002,6.287355E-002,6.287355E-002,6.287355E-002,6.287355E-002,6.287355E-002,6.287355E-002,6.287355E-002,6.287355E-002,
   **   ~~~   ** Supply-to-demand interface deck 1 mass flow rate check value iteration history trace: 6.287355E-002,6.287355E-002,6.287355E-002,6.287355E-002,6.287355E-002,6.287355E-002,6.287355E-002,6.287355E-002,6.287355E-002,6.287355E-002,
   **   ~~~   ** Air System Named = CENTRAL SYSTEM did not converge for energy
   **   ~~~   ** Check values should be zero. Most Recent values listed first.
   **   ~~~   ** Demand-to-Supply interface energy check value iteration history trace: 1466.292832,1466.292832,1466.292832,1466.292832,1466.292832,1466.292832,1466.292832,1466.292832,1466.292832,1466.292833,
   **   ~~~   ** Supply-to-demand interface deck 1 energy check value iteration history trace: 583.149149,583.149149,583.149149,583.149149,583.149149,583.149149,583.149149,583.149149,583.149149,583.149149,
   ** Warning ** SimHVAC: Maximum iterations (20) exceeded for all HVAC loops, at ANNUAL, 11/17 16:30 - 16:45
   **   ~~~   ** The solution for one or more of the Air Loop HVAC systems did not appear to converge
   **   ~~~   ** Air System Named = CENTRAL SYSTEM did not converge for mass flow rate
   **   ~~~   ** Check values should be zero. Most Recent values listed first.
   **   ~~~   ** Demand-to-Supply interface mass flow rate check value iteration history trace: 6.227847E-002,6.227847E-002,6.227847E-002,6.227847E-002,6.227847E-002,6.227847E-002,6.227847E-002,6.227847E-002,6.227847E-002,6.227847E-002,
   **   ~~~   ** Supply-to-demand interface deck 1 mass flow rate check value iteration history trace: 6.227847E-002,6.227847E-002,6.227847E-002,6.227847E-002,6.227847E-002,6.227847E-002,6.227847E-002,6.227847E-002,6.227847E-002,6.227847E-002,
   **   ~~~   ** Air System Named = CENTRAL SYSTEM did not converge for energy
   **   ~~~   ** Check values should be zero. Most Recent values listed first.
   **   ~~~   ** Demand-to-Supply interface energy check value iteration history trace: 1233.167368,1233.167368,1233.167368,1233.167368,1233.167368,1233.167368,1233.167368,1233.167368,1233.167368,1233.167367,
   **   ~~~   ** Supply-to-demand interface deck 1 energy check value iteration history trace: 2152.840894,2152.840894,2152.840894,2152.840894,2152.840894,2152.840893,2152.840893,2152.840893,2152.840893,2152.840893,
   ** Warning ** SimHVAC: Maximum iterations (20) exceeded for all HVAC loops, at ANNUAL, 11/20 13:54 - 13:57
   **   ~~~   ** The solution for one or more of the Air Loop HVAC systems did not appear to converge
   **   ~~~   ** Air System Named = CENTRAL SYSTEM did not converge for mass flow rate
   **   ~~~   ** Check values should be zero. Most Recent values listed first.
   **   ~~~   ** Demand-to-Supply interface mass flow rate check value iteration history trace: 0.328093,0.328093,0.328093,0.328093,0.328093,0.328093,0.328093,0.328093,0.328093,0.328093,
   **   ~~~   ** Supply-to-demand interface deck 1 mass flow rate check value iteration history trace: 0.328093,0.328093,0.328093,0.328093,0.328093,0.328093,0.328093,0.328093,0.328093,0.328093,
   **   ~~~   ** Air System Named = CENTRAL SYSTEM did not converge for energy
   **   ~~~   ** Check values should be zero. Most Recent values listed first.
   **   ~~~   ** Demand-to-Supply interface energy check value iteration history trace: 7848.925698,7848.925699,7848.925701,7848.925702,7848.925703,7848.925705,7848.925706,7848.925707,7848.925708,7848.925710,
   **   ~~~   ** Supply-to-demand interface deck 1 energy check value iteration history trace: 3697.588598,3697.588599,3697.588600,3697.588600,3697.588601,3697.588601,3697.588602,3697.588603,3697.588603,3697.588604,
   ** Warning ** SimHVAC: Maximum iterations (20) exceeded for all HVAC loops, at ANNUAL, 11/20 18:15 - 18:30
   **   ~~~   ** The solution for one or more of the Air Loop HVAC systems did not appear to converge
   **   ~~~   ** Air System Named = CENTRAL SYSTEM did not converge for mass flow rate
   **   ~~~   ** Check values should be zero. Most Recent values listed first.
   **   ~~~   ** Demand-to-Supply interface mass flow rate check value iteration history trace: 0.157799,0.157799,0.157799,0.157799,0.157799,0.157799,0.157799,0.157799,0.157799,0.157799,
   **   ~~~   ** Supply-to-demand interface deck 1 mass flow rate check value iteration history trace: 0.157799,0.157799,0.157799,0.157799,0.157799,0.157799,0.157799,0.157799,0.157799,0.157799,
   **   ~~~   ** Air System Named = CENTRAL SYSTEM did not converge for energy
   **   ~~~   ** Check values should be zero. Most Recent values listed first.
   **   ~~~   ** Demand-to-Supply interface energy check value iteration history trace: 3838.524479,3838.524479,3838.524480,3838.524481,3838.524481,3838.524482,3838.524483,3838.524483,3838.524484,3838.524484,
   **   ~~~   ** Supply-to-demand interface deck 1 energy check value iteration history trace: 1781.313958,1781.313958,1781.313959,1781.313959,1781.313959,1781.313960,1781.313960,1781.313960,1781.313960,1781.313961,
   ** Warning ** SimHVAC: Maximum iterations (20) exceeded for all HVAC loops, at ANNUAL, 12/06 04:45 - 05:00
   **   ~~~   ** The solution for one or more of the Air Loop HVAC systems did not appear to converge
   **   ~~~   ** Air System Named = CENTRAL SYSTEM did not converge for mass flow rate
   **   ~~~   ** Check values should be zero. Most Recent values listed first.
   **   ~~~   ** Demand-to-Supply interface mass flow rate check value iteration history trace: 4.911708E-002,4.911708E-002,4.911708E-002,4.911708E-002,4.911708E-002,4.911708E-002,4.911708E-002,4.911708E-002,4.911708E-002,4.911708E-002,
   **   ~~~   ** Supply-to-demand interface deck 1 mass flow rate check value iteration history trace: 4.911708E-002,4.911708E-002,4.911708E-002,4.911708E-002,4.911708E-002,4.911708E-002,4.911708E-002,4.911708E-002,4.911708E-002,4.911708E-002,
   **   ~~~   ** Air System Named = CENTRAL SYSTEM did not converge for energy
   **   ~~~   ** Check values should be zero. Most Recent values listed first.
   **   ~~~   ** Demand-to-Supply interface energy check value iteration history trace: 916.698352,916.698352,916.698352,916.698352,916.698352,916.698352,916.698352,916.698352,916.698352,916.698351,
   **   ~~~   ** Supply-to-demand interface deck 1 energy check value iteration history trace: 1425.199941,1425.199941,1425.199941,1425.199941,1425.199940,1425.199940,1425.199940,1425.199940,1425.199940,1425.199940,
   ** Warning ** SimHVAC: Maximum iterations (20) exceeded for all HVAC loops, at ANNUAL, 12/07 07:08 - 07:15
   **   ~~~   ** The solution for one or more of the Air Loop HVAC systems did not appear to converge
   **   ~~~   ** Air System Named = CENTRAL SYSTEM did not converge for mass flow rate
   **   ~~~   ** Check values should be zero. Most Recent values listed first.
   **   ~~~   ** Demand-to-Supply interface mass flow rate check value iteration history trace: 4.975926E-002,4.975926E-002,4.975926E-002,4.975926E-002,4.975926E-002,4.975926E-002,4.975926E-002,4.975926E-002,4.975926E-002,4.975926E-002,
   **   ~~~   ** Supply-to-demand interface deck 1 mass flow rate check value iteration history trace: 4.975926E-002,4.975926E-002,4.975926E-002,4.975926E-002,4.975926E-002,4.975926E-002,4.975926E-002,4.975926E-002,4.975926E-002,4.975926E-002,
   **   ~~~   ** Air System Named = CENTRAL SYSTEM did not converge for energy
   **   ~~~   ** Check values should be zero. Most Recent values listed first.
   **   ~~~   ** Demand-to-Supply interface energy check value iteration history trace: 988.621300,988.621300,988.621300,988.621300,988.621300,988.621300,988.621300,988.621300,988.621300,988.621300,
   **   ~~~   ** Supply-to-demand interface deck 1 energy check value iteration history trace: 1770.633406,1770.633406,1770.633406,1770.633406,1770.633406,1770.633406,1770.633406,1770.633406,1770.633405,1770.633405,
   ************* Simulation Error Summary *************
   ** Warning ** The following Report Variables were requested but not generated -- check.rdd file
   **   ~~~   ** Either the IDF did not contain these elements, the variable name is misspelled,
   **   ~~~   ** or the requested variable is an advanced output which requires Output : Diagnostics, DisplayAdvancedReportVariables;
   ************* Key=*, VarName=BASEBOARD TOTAL HEATING ENERGY, Frequency=
   ************* Key=*, VarName=WATER HEATER NATURALGAS ENERGY, Frequency=
   ************* Key=*, VarName=COOLING COIL TOTAL HEATING ENERGY, Frequency=
   ************* There are 34 unused schedules in input.
   ************* There are 388 unused week schedules in input.
   ************* There are 397 unused day schedules in input.
   ************* Use Output:Diagnostics,DisplayUnusedSchedules; to see them.
   *************
   ************* ===== Recurring Error Summary =====
   ************* The following recurring error messages occurred.
   *************
   *************  ** Warning ** "TOTAL HOT WATER LOAD" - Target water temperature should be less than or equal to the hot water temperature error continues...
   *************  **   ~~~   **   This error occurred 118887 total times;
   *************  **   ~~~   **   during Warmup 0 times;
   *************  **   ~~~   **   during Sizing 0 times.
   *************  **   ~~~   **   Max=9.30474  Min=2.035435E-003
   *************
   *************  ** Warning ** SimHVAC: Exceeding Maximum iterations for all HVAC loops, during ANNUAL continues
   *************  **   ~~~   **   This error occurred 2 total times;
   *************  **   ~~~   **   during Warmup 0 times;
   *************  **   ~~~   **   during Sizing 0 times.
   *************
   *************
   ************* ===== Final Error Summary =====
   ************* The following error categories occurred.  Consider correcting or noting.
   ************* Nominally Unused Constructions
   ************* ..The nominally unused constructions warning is provided to alert you to potential conditions that can cause
   ************* ..extra time during simulation. Each construction is calculated by the algorithm indicated in the HeatBalanceAlgorithm
   ************* ..object. You may remove the constructions indicated (when you use the DisplayExtraWarnings option).
   *************
   ************* EnergyPlus Warmup Error Summary. During Warmup: 1 Warning; 0 Severe Errors.
   ************* EnergyPlus Sizing Error Summary. During Sizing: 4 Warning; 0 Severe Errors.
   ************* EnergyPlus Completed Successfully-- 118920 Warning; 0 Severe Errors; Elapsed Time=00hr 01min 41.04sec
