Program Version,EnergyPlus, Version 22.2.0-c249759bad, YMD=2023.09.01 20:10,
   ************* Beginning Zone Sizing Calculations
   ** Warning ** ProcessScheduleInput: Schedule:Constant="ALWAYS ON DISCRETE", Schedule Type Limits Name="ONOFF" not found -- will not be validated
   ** Warning ** Foundation:Kiva="KIVA FOUNDATION", no Interior Horizontal Insulation Material Name defined
   **   ~~~   ** Interior Horizontal Insulation Depth will not be used.
   ** Warning ** CheckUsedConstructions: There are 15 nominally unused constructions in input.
   **   ~~~   ** Each Unused construction is shown.
   ************* Construction=INTERIOR FLOOR
   ************* Construction=INTERIOR WINDOW
   ************* Construction=EXTERIOR DOOR
   ************* Construction=INTERIOR DOOR
   ************* Construction=GABLE CONSTRUCTION
   ************* Construction=CRAWL_FLOOR
   ************* Construction=INSULATED PIPE
   ************* Construction=PLAIN PIPE
   ************* Construction=TDD PIPE
   ************* Construction=TDD DOME
   ************* Construction=TDD DIFFUSER
   ************* Construction=CRAWL WALL
   ************* Construction=CEILING-FLOOR-LAYER
   ************* Construction=SLAB CONSTRUCTION W FULL R10 INSULATION
   ************* Construction=SLAB CONSTRUCTION W FULL R5 INSULATION
   ** Warning ** GetDXCoils: Coil:Heating:DX:SingleSpeed="DX_HEATING_COIL" curve values
   **   ~~~   ** ... Defrost Energy Input Ratio Function of Temperature Curve Name = DEFROSTEIR output is not equal to 1.0 (+ or - 10%) at rated conditions.
   **   ~~~   ** ... Curve output at rated conditions = 0.152
   ************* Beginning System Sizing Calculations
   ************* Beginning Plant Sizing Calculations
   ** Warning ** SizeDXCoil Coil:Cooling:DX:SingleSpeed DX_COOLING_COIL
   **   ~~~   ** ...Gross Rated Total Cooling Capacity [W] will be limited by the maximum rated volume flow per rated total capacity ratio.
   **   ~~~   ** ...DX coil volume flow rate ( m3/s ) = 0.455615
   **   ~~~   ** ...Requested capacity ( W ) = 7325.464
   **   ~~~   ** ...Requested flow/capacity ratio ( m3/s/W ) = 6.219E-005
   **   ~~~   ** ...Maximum flow/capacity ratio ( m3/s/W ) = 6.041E-005
   **   ~~~   ** ...Adjusted capacity ( W ) = 7542.058
   ** Warning ** Coil:WaterHeating:AirToWaterHeatPump:Wrapped "HEAT PUMP WATER HEATER EVAPORATOR": Rated air volume flow rate per watt of rated total water heating capacity is out of range
   **   ~~~   ** Min Rated Vol Flow Per Watt=[4.027E-005], Rated Vol Flow Per Watt=[1.510E-004], Max Rated Vol Flow Per Watt=[8.056E-005]. See Input-Output Reference Manual for valid range.
   ************* SizeFan: : Potential issue with equipment sizing for Fan:OnOff HEAT PUMP WATER HEATER FAN
   **   ~~~   ** User-Specified Maximum Flow Rate [m3/s] = 0.22653
   **   ~~~   ** differs from Design Size Maximum Flow Rate [m3/s] = 7.55250E-002
   **   ~~~   ** This may, or may not, indicate mismatched component sizes.
   **   ~~~   ** Verify that the value entered is intended and is consistent with other components.
   ** Warning ** Water heater = WATER HEATER TANK:  Recovery Efficiency and Energy Factor could not be calculated during the test for standard ratings
   **   ~~~   ** Setpoint was never recovered and/or heater never turned on
   ** Warning ** Check input. Pump nominal power or motor efficiency is set to 0, for pump=MAINS PRESSURE
   ** Warning ** Output:Meter: invalid Key Name="ELECTRIC_RANGE:INTERIOREQUIPMENT:ELECTRICITY" - not found.
   ** Warning ** Output:Meter: invalid Key Name="ELECTRIC_DRYER:INTERIOREQUIPMENT:ELECTRICITY" - not found.
   ** Warning ** Output:Meter: invalid Key Name="HEATRECOVERY:ELECTRICITY" - not found.
   ** Warning ** Output:Meter: invalid Key Name="HEATING:NATURALGAS" - not found.
   ** Warning ** Output:Meter: invalid Key Name="WATERSYSTEMS:NATURALGAS" - not found.
   ** Warning ** Output:Meter: invalid Key Name="PROPANE:FACILITY" - not found.
   ** Warning ** Output:Meter: invalid Key Name="HEATING:PROPANE" - not found.
   ************* Testing Individual Branch Integrity
   ************* All Branches passed integrity testing
   ************* Testing Individual Supply Air Path Integrity
   ************* All Supply Air Paths passed integrity testing
   ************* Testing Individual Return Air Path Integrity
   ************* All Return Air Paths passed integrity testing
   ************* No node connection errors were found.
   ************* Beginning Simulation
   ** Warning ** AirflowNetwork::Solver::validate_distribution: Heat pump water heater is simulated along with an AirflowNetwork but is not included in the AirflowNetwork.
   ** Warning ** CalcEquipmentFlowRates: "TOTAL HOT WATER LOAD" - Target water temperature is greater than the hot water temperature by (4.65 C)
   **   ~~~   **  Environment=EXTREME_WINTER, at Simulation time=01/29 07:00 - 07:15
   **   ~~~   ** ...target water temperature     = 53.33 C
   **   ~~~   ** ...hot water temperature        = 48.69 C
   **   ~~~   ** ...Target water temperature should be less than or equal to the hot water temperature. Verify temperature setpoints and schedules.
   ** Warning ** SimHVAC: Maximum iterations (20) exceeded for all HVAC loops, at EXTREME_WINTER, 02/04 12:00 - 12:04
   **   ~~~   ** The solution for one or more of the Air Loop HVAC systems did not appear to converge
   **   ~~~   ** Air System Named = CENTRAL SYSTEM did not converge for mass flow rate
   **   ~~~   ** Check values should be zero. Most Recent values listed first.
   **   ~~~   ** Demand-to-Supply interface mass flow rate check value iteration history trace: 7.929402E-002,7.929402E-002,7.929402E-002,7.929402E-002,7.929402E-002,7.929402E-002,7.929402E-002,7.929402E-002,7.929402E-002,7.929402E-002,
   **   ~~~   ** Supply-to-demand interface deck 1 mass flow rate check value iteration history trace: 7.929402E-002,7.929402E-002,7.929402E-002,7.929402E-002,7.929402E-002,7.929402E-002,7.929402E-002,7.929402E-002,7.929402E-002,7.929402E-002,
   **   ~~~   ** Air System Named = CENTRAL SYSTEM did not converge for energy
   **   ~~~   ** Check values should be zero. Most Recent values listed first.
   **   ~~~   ** Demand-to-Supply interface energy check value iteration history trace: 1557.417760,1557.417760,1557.417760,1557.417759,1557.417759,1557.417759,1557.417759,1557.417759,1557.417759,1557.417759,
   **   ~~~   ** Supply-to-demand interface deck 1 energy check value iteration history trace: 2415.347862,2415.347862,2415.347861,2415.347861,2415.347861,2415.347861,2415.347861,2415.347861,2415.347860,2415.347860,
   ** Warning ** SimHVAC: Maximum iterations (20) exceeded for all HVAC loops, at ANNUAL, 01/01 11:53 - 12:00
   **   ~~~   ** The solution for one or more of the Air Loop HVAC systems did not appear to converge
   **   ~~~   ** Air System Named = CENTRAL SYSTEM did not converge for mass flow rate
   **   ~~~   ** Check values should be zero. Most Recent values listed first.
   **   ~~~   ** Demand-to-Supply interface mass flow rate check value iteration history trace: 5.758093E-002,5.758093E-002,5.758093E-002,5.758093E-002,5.758093E-002,5.758093E-002,5.758093E-002,5.758093E-002,5.758093E-002,5.758093E-002,
   **   ~~~   ** Supply-to-demand interface deck 1 mass flow rate check value iteration history trace: 5.758093E-002,5.758093E-002,5.758093E-002,5.758093E-002,5.758093E-002,5.758093E-002,5.758093E-002,5.758093E-002,5.758093E-002,5.758093E-002,
   **   ~~~   ** Air System Named = CENTRAL SYSTEM did not converge for energy
   **   ~~~   ** Check values should be zero. Most Recent values listed first.
   **   ~~~   ** Demand-to-Supply interface energy check value iteration history trace: 1135.365385,1135.365385,1135.365385,1135.365385,1135.365384,1135.365384,1135.365384,1135.365384,1135.365384,1135.365384,
   **   ~~~   ** Supply-to-demand interface deck 1 energy check value iteration history trace: 1980.220672,1980.220672,1980.220672,1980.220672,1980.220671,1980.220671,1980.220671,1980.220671,1980.220671,1980.220671,
   ** Warning ** SimHVAC: Maximum iterations (20) exceeded for all HVAC loops, at ANNUAL, 01/08 12:00 - 12:15
   **   ~~~   ** The solution for one or more of the Air Loop HVAC systems did not appear to converge
   **   ~~~   ** Air System Named = CENTRAL SYSTEM did not converge for mass flow rate
   **   ~~~   ** Check values should be zero. Most Recent values listed first.
   **   ~~~   ** Demand-to-Supply interface mass flow rate check value iteration history trace: 5.325258E-002,5.325258E-002,5.325258E-002,5.325258E-002,5.325258E-002,5.325258E-002,5.325258E-002,5.325258E-002,5.325258E-002,5.325258E-002,
   **   ~~~   ** Supply-to-demand interface deck 1 mass flow rate check value iteration history trace: 5.325258E-002,5.325258E-002,5.325258E-002,5.325258E-002,5.325258E-002,5.325258E-002,5.325258E-002,5.325258E-002,5.325258E-002,5.325258E-002,
   **   ~~~   ** Air System Named = CENTRAL SYSTEM did not converge for energy
   **   ~~~   ** Check values should be zero. Most Recent values listed first.
   **   ~~~   ** Demand-to-Supply interface energy check value iteration history trace: 1055.273200,1055.273200,1055.273200,1055.273200,1055.273200,1055.273200,1055.273200,1055.273200,1055.273200,1055.273199,
   **   ~~~   ** Supply-to-demand interface deck 1 energy check value iteration history trace: 1849.321449,1849.321449,1849.321449,1849.321449,1849.321449,1849.321449,1849.321449,1849.321449,1849.321449,1849.321449,
   ** Warning ** SimHVAC: Maximum iterations (20) exceeded for all HVAC loops, at ANNUAL, 01/22 07:30 - 07:38
   **   ~~~   ** The solution for one or more of the Air Loop HVAC systems did not appear to converge
   **   ~~~   ** Air System Named = CENTRAL SYSTEM did not converge for mass flow rate
   **   ~~~   ** Check values should be zero. Most Recent values listed first.
   **   ~~~   ** Demand-to-Supply interface mass flow rate check value iteration history trace: 5.349012E-002,5.349012E-002,5.349012E-002,5.349012E-002,5.349012E-002,5.349012E-002,5.349012E-002,5.349012E-002,5.349012E-002,5.349012E-002,
   **   ~~~   ** Supply-to-demand interface deck 1 mass flow rate check value iteration history trace: 5.349012E-002,5.349012E-002,5.349012E-002,5.349012E-002,5.349012E-002,5.349012E-002,5.349012E-002,5.349012E-002,5.349012E-002,5.349012E-002,
   **   ~~~   ** Air System Named = CENTRAL SYSTEM did not converge for energy
   **   ~~~   ** Check values should be zero. Most Recent values listed first.
   **   ~~~   ** Demand-to-Supply interface energy check value iteration history trace: 1068.095282,1068.095282,1068.095282,1068.095281,1068.095281,1068.095281,1068.095281,1068.095281,1068.095281,1068.095281,
   **   ~~~   ** Supply-to-demand interface deck 1 energy check value iteration history trace: 1840.345421,1840.345421,1840.345421,1840.345421,1840.345421,1840.345421,1840.345421,1840.345421,1840.345420,1840.345420,
   ** Warning ** SimHVAC: Maximum iterations (20) exceeded for all HVAC loops, at ANNUAL, 02/01 18:15 - 18:30
   **   ~~~   ** The solution for one or more of the Air Loop HVAC systems did not appear to converge
   **   ~~~   ** Air System Named = CENTRAL SYSTEM did not converge for mass flow rate
   **   ~~~   ** Check values should be zero. Most Recent values listed first.
   **   ~~~   ** Demand-to-Supply interface mass flow rate check value iteration history trace: 3.280150E-002,3.280150E-002,3.280150E-002,3.280150E-002,3.280150E-002,3.280150E-002,3.280150E-002,3.280150E-002,3.280150E-002,3.280150E-002,
   **   ~~~   ** Supply-to-demand interface deck 1 mass flow rate check value iteration history trace: 3.280150E-002,3.280150E-002,3.280150E-002,3.280150E-002,3.280150E-002,3.280150E-002,3.280150E-002,3.280150E-002,3.280150E-002,3.280150E-002,
   **   ~~~   ** Air System Named = CENTRAL SYSTEM did not converge for energy
   **   ~~~   ** Check values should be zero. Most Recent values listed first.
   **   ~~~   ** Demand-to-Supply interface energy check value iteration history trace: 646.166090,646.166090,646.166090,646.166090,646.166089,646.166089,646.166089,646.166089,646.166089,646.166089,
   **   ~~~   ** Supply-to-demand interface deck 1 energy check value iteration history trace: 946.355032,946.355031,946.355031,946.355031,946.355031,946.355030,946.355030,946.355030,946.355030,946.355029,
   ** Warning ** SimHVAC: Maximum iterations (20) exceeded for all HVAC loops, at ANNUAL, 02/11 09:15 - 09:30
   **   ~~~   ** The solution for one or more of the Air Loop HVAC systems did not appear to converge
   **   ~~~   ** Air System Named = CENTRAL SYSTEM did not converge for mass flow rate
   **   ~~~   ** Check values should be zero. Most Recent values listed first.
   **   ~~~   ** Demand-to-Supply interface mass flow rate check value iteration history trace: 8.210010E-002,8.210010E-002,8.210010E-002,8.210010E-002,8.210010E-002,8.210010E-002,8.210010E-002,8.210010E-002,8.210010E-002,8.210010E-002,
   **   ~~~   ** Supply-to-demand interface deck 1 mass flow rate check value iteration history trace: 8.210010E-002,8.210010E-002,8.210010E-002,8.210010E-002,8.210010E-002,8.210010E-002,8.210010E-002,8.210010E-002,8.210010E-002,8.210010E-002,
   **   ~~~   ** Air System Named = CENTRAL SYSTEM did not converge for energy
   **   ~~~   ** Check values should be zero. Most Recent values listed first.
   **   ~~~   ** Demand-to-Supply interface energy check value iteration history trace: 1626.958904,1626.958904,1626.958904,1626.958903,1626.958903,1626.958903,1626.958903,1626.958903,1626.958903,1626.958903,
   **   ~~~   ** Supply-to-demand interface deck 1 energy check value iteration history trace: 2721.576621,2721.576620,2721.576620,2721.576620,2721.576620,2721.576620,2721.576620,2721.576620,2721.576620,2721.576619,
   ** Warning ** SimHVAC: Maximum iterations (20) exceeded for all HVAC loops, at ANNUAL, 02/12 09:37 - 09:38
   **   ~~~   ** The solution for one or more of the Air Loop HVAC systems did not appear to converge
   **   ~~~   ** Air System Named = CENTRAL SYSTEM did not converge for mass flow rate
   **   ~~~   ** Check values should be zero. Most Recent values listed first.
   **   ~~~   ** Demand-to-Supply interface mass flow rate check value iteration history trace: 6.895575E-002,6.895575E-002,6.895575E-002,6.895575E-002,6.895575E-002,6.895575E-002,6.895575E-002,6.895575E-002,6.895575E-002,6.895575E-002,
   **   ~~~   ** Supply-to-demand interface deck 1 mass flow rate check value iteration history trace: 6.895575E-002,6.895575E-002,6.895575E-002,6.895575E-002,6.895575E-002,6.895575E-002,6.895575E-002,6.895575E-002,6.895575E-002,6.895575E-002,
   **   ~~~   ** Air System Named = CENTRAL SYSTEM did not converge for energy
   **   ~~~   ** Check values should be zero. Most Recent values listed first.
   **   ~~~   ** Demand-to-Supply interface energy check value iteration history trace: 1361.761290,1361.761289,1361.761289,1361.761289,1361.761289,1361.761289,1361.761289,1361.761289,1361.761289,1361.761289,
   **   ~~~   ** Supply-to-demand interface deck 1 energy check value iteration history trace: 2421.083701,2421.083701,2421.083701,2421.083701,2421.083700,2421.083700,2421.083700,2421.083700,2421.083700,2421.083700,
   ** Warning ** SimHVAC: Maximum iterations (20) exceeded for all HVAC loops, at ANNUAL, 03/06 09:45 - 10:00
   **   ~~~   ** The solution for one or more of the Air Loop HVAC systems did not appear to converge
   **   ~~~   ** Air System Named = CENTRAL SYSTEM did not converge for mass flow rate
   **   ~~~   ** Check values should be zero. Most Recent values listed first.
   **   ~~~   ** Demand-to-Supply interface mass flow rate check value iteration history trace: 1.622883E-002,1.622883E-002,1.622883E-002,1.622883E-002,1.622883E-002,1.622883E-002,1.622883E-002,1.622883E-002,1.622883E-002,1.622883E-002,
   **   ~~~   ** Supply-to-demand interface deck 1 mass flow rate check value iteration history trace: 1.622883E-002,1.622883E-002,1.622883E-002,1.622883E-002,1.622883E-002,1.622883E-002,1.622883E-002,1.622883E-002,1.622883E-002,1.622883E-002,
   **   ~~~   ** Air System Named = CENTRAL SYSTEM did not converge for energy
   **   ~~~   ** Check values should be zero. Most Recent values listed first.
   **   ~~~   ** Demand-to-Supply interface energy check value iteration history trace: 378.819196,378.819196,378.819196,378.819197,378.819197,378.819197,378.819197,378.819197,378.819197,378.819197,
   **   ~~~   ** Supply-to-demand interface deck 1 energy check value iteration history trace: 212.692854,212.692854,212.692854,212.692854,212.692854,212.692854,212.692854,212.692854,212.692854,212.692854,
   ** Warning ** SimHVAC: Maximum iterations (20) exceeded for all HVAC loops, at ANNUAL, 03/07 10:45 - 11:00
   **   ~~~   ** The solution for one or more of the Air Loop HVAC systems did not appear to converge
   **   ~~~   ** Air System Named = CENTRAL SYSTEM did not converge for mass flow rate
   **   ~~~   ** Check values should be zero. Most Recent values listed first.
   **   ~~~   ** Demand-to-Supply interface mass flow rate check value iteration history trace: 8.072589E-002,8.072589E-002,8.072589E-002,8.072589E-002,8.072589E-002,8.072589E-002,8.072589E-002,8.072589E-002,8.072589E-002,8.072589E-002,
   **   ~~~   ** Supply-to-demand interface deck 1 mass flow rate check value iteration history trace: 8.072589E-002,8.072589E-002,8.072589E-002,8.072589E-002,8.072589E-002,8.072589E-002,8.072589E-002,8.072589E-002,8.072589E-002,8.072589E-002,
   **   ~~~   ** Air System Named = CENTRAL SYSTEM did not converge for energy
   **   ~~~   ** Check values should be zero. Most Recent values listed first.
   **   ~~~   ** Demand-to-Supply interface energy check value iteration history trace: 1917.263655,1917.263655,1917.263655,1917.263656,1917.263656,1917.263656,1917.263656,1917.263656,1917.263656,1917.263657,
   **   ~~~   ** Supply-to-demand interface deck 1 energy check value iteration history trace: 1082.640002,1082.640002,1082.640002,1082.640002,1082.640002,1082.640002,1082.640003,1082.640003,1082.640003,1082.640003,
   ** Warning ** SimHVAC: Maximum iterations (20) exceeded for all HVAC loops, at ANNUAL, 03/09 00:38 - 00:45
   **   ~~~   ** The solution for one or more of the Air Loop HVAC systems did not appear to converge
   **   ~~~   ** Air System Named = CENTRAL SYSTEM did not converge for mass flow rate
   **   ~~~   ** Check values should be zero. Most Recent values listed first.
   **   ~~~   ** Demand-to-Supply interface mass flow rate check value iteration history trace: 0.133923,0.133923,0.133923,0.133923,0.133923,0.133923,0.133923,0.133923,0.133923,0.133923,
   **   ~~~   ** Supply-to-demand interface deck 1 mass flow rate check value iteration history trace: 0.133923,0.133923,0.133923,0.133923,0.133923,0.133923,0.133923,0.133923,0.133923,0.133923,
   **   ~~~   ** Air System Named = CENTRAL SYSTEM did not converge for energy
   **   ~~~   ** Check values should be zero. Most Recent values listed first.
   **   ~~~   ** Demand-to-Supply interface energy check value iteration history trace: 3311.621378,3311.621379,3311.621379,3311.621380,3311.621380,3311.621381,3311.621381,3311.621382,3311.621382,3311.621383,
   **   ~~~   ** Supply-to-demand interface deck 1 energy check value iteration history trace: 1810.510501,1810.510501,1810.510502,1810.510502,1810.510502,1810.510502,1810.510503,1810.510503,1810.510503,1810.510503,
   ** Warning ** SimHVAC: Maximum iterations (20) exceeded for all HVAC loops, at ANNUAL, 03/11 02:08 - 02:15
   **   ~~~   ** The solution for one or more of the Air Loop HVAC systems did not appear to converge
   **   ~~~   ** Air System Named = CENTRAL SYSTEM did not converge for mass flow rate
   **   ~~~   ** Check values should be zero. Most Recent values listed first.
   **   ~~~   ** Demand-to-Supply interface mass flow rate check value iteration history trace: 0.127341,0.127341,0.127341,0.127341,0.127341,0.127341,0.127341,0.127341,0.127341,0.127341,
   **   ~~~   ** Supply-to-demand interface deck 1 mass flow rate check value iteration history trace: 0.127341,0.127341,0.127341,0.127341,0.127341,0.127341,0.127341,0.127341,0.127341,0.127341,
   **   ~~~   ** Air System Named = CENTRAL SYSTEM did not converge for energy
   **   ~~~   ** Check values should be zero. Most Recent values listed first.
   **   ~~~   ** Demand-to-Supply interface energy check value iteration history trace: 3148.684902,3148.684903,3148.684904,3148.684905,3148.684906,3148.684907,3148.684909,3148.684910,3148.684911,3148.684912,
   **   ~~~   ** Supply-to-demand interface deck 1 energy check value iteration history trace: 1754.674819,1754.674819,1754.674820,1754.674821,1754.674821,1754.674822,1754.674823,1754.674823,1754.674824,1754.674825,
   ** Warning ** SimHVAC: Maximum iterations (20) exceeded for all HVAC loops, at ANNUAL, 03/20 22:45 - 23:00
   **   ~~~   ** The solution for one or more of the Air Loop HVAC systems did not appear to converge
   **   ~~~   ** Air System Named = CENTRAL SYSTEM did not converge for mass flow rate
   **   ~~~   ** Check values should be zero. Most Recent values listed first.
   **   ~~~   ** Demand-to-Supply interface mass flow rate check value iteration history trace: 3.668454E-002,3.668454E-002,3.668454E-002,3.668454E-002,3.668454E-002,3.668454E-002,3.668454E-002,3.668454E-002,3.668454E-002,3.668454E-002,
   **   ~~~   ** Supply-to-demand interface deck 1 mass flow rate check value iteration history trace: 3.668454E-002,3.668454E-002,3.668454E-002,3.668454E-002,3.668454E-002,3.668454E-002,3.668454E-002,3.668454E-002,3.668454E-002,3.668454E-002,
   **   ~~~   ** Air System Named = CENTRAL SYSTEM did not converge for energy
   **   ~~~   ** Check values should be zero. Most Recent values listed first.
   **   ~~~   ** Demand-to-Supply interface energy check value iteration history trace: 898.553785,898.553785,898.553785,898.553785,898.553785,898.553785,898.553786,898.553786,898.553786,898.553786,
   **   ~~~   ** Supply-to-demand interface deck 1 energy check value iteration history trace: 419.642673,419.642673,419.642673,419.642673,419.642673,419.642673,419.642673,419.642673,419.642673,419.642673,
   ** Warning ** SimHVAC: Maximum iterations (20) exceeded for all HVAC loops, at ANNUAL, 03/21 08:23 - 08:25
   **   ~~~   ** The solution for one or more of the Air Loop HVAC systems did not appear to converge
   **   ~~~   ** Air System Named = CENTRAL SYSTEM did not converge for mass flow rate
   **   ~~~   ** Check values should be zero. Most Recent values listed first.
   **   ~~~   ** Demand-to-Supply interface mass flow rate check value iteration history trace: 0.349991,0.349991,0.349991,0.349991,0.349991,0.349991,0.349991,0.349991,0.349991,0.349991,
   **   ~~~   ** Supply-to-demand interface deck 1 mass flow rate check value iteration history trace: 0.349991,0.349991,0.349991,0.349991,0.349991,0.349991,0.349991,0.349991,0.349991,0.349991,
   **   ~~~   ** Air System Named = CENTRAL SYSTEM did not converge for energy
   **   ~~~   ** Check values should be zero. Most Recent values listed first.
   **   ~~~   ** Demand-to-Supply interface energy check value iteration history trace: 8375.743647,8375.743648,8375.743649,8375.743650,8375.743651,8375.743653,8375.743654,8375.743655,8375.743656,8375.743657,
   **   ~~~   ** Supply-to-demand interface deck 1 energy check value iteration history trace: 4623.559537,4623.559537,4623.559538,4623.559538,4623.559539,4623.559540,4623.559540,4623.559541,4623.559542,4623.559542,
   ** Warning ** SimHVAC: Maximum iterations (20) exceeded for all HVAC loops, at ANNUAL, 03/21 09:32 - 09:35
   **   ~~~   ** The solution for one or more of the Air Loop HVAC systems did not appear to converge
   **   ~~~   ** Air System Named = CENTRAL SYSTEM did not converge for mass flow rate
   **   ~~~   ** Check values should be zero. Most Recent values listed first.
   **   ~~~   ** Demand-to-Supply interface mass flow rate check value iteration history trace: 0.310335,0.310335,0.310335,0.310335,0.310335,0.310335,0.310335,0.310335,0.310335,0.310335,
   **   ~~~   ** Supply-to-demand interface deck 1 mass flow rate check value iteration history trace: 0.310335,0.310335,0.310335,0.310335,0.310335,0.310335,0.310335,0.310335,0.310335,0.310335,
   **   ~~~   ** Air System Named = CENTRAL SYSTEM did not converge for energy
   **   ~~~   ** Check values should be zero. Most Recent values listed first.
   **   ~~~   ** Demand-to-Supply interface energy check value iteration history trace: 7406.050579,7406.050580,7406.050580,7406.050581,7406.050581,7406.050582,7406.050582,7406.050582,7406.050583,7406.050583,
   **   ~~~   ** Supply-to-demand interface deck 1 energy check value iteration history trace: 3998.627536,3998.627536,3998.627537,3998.627537,3998.627537,3998.627537,3998.627538,3998.627538,3998.627538,3998.627538,
   ************* Simulation Error Summary *************
   ** Warning ** The following Report Variables were requested but not generated -- check.rdd file
   **   ~~~   ** Either the IDF did not contain these elements, the variable name is misspelled,
   **   ~~~   ** or the requested variable is an advanced output which requires Output : Diagnostics, DisplayAdvancedReportVariables;
   ************* Key=*, VarName=BASEBOARD TOTAL HEATING ENERGY, Frequency=
   ************* Key=*, VarName=WATER HEATER NATURALGAS ENERGY, Frequency=
   ************* Key=*, VarName=COOLING COIL TOTAL HEATING ENERGY, Frequency=
   ************* There are 34 unused schedules in input.
   ************* There are 388 unused week schedules in input.
   ************* There are 396 unused day schedules in input.
   ************* Use Output:Diagnostics,DisplayUnusedSchedules; to see them.
   *************
   ************* ===== Recurring Error Summary =====
   ************* The following recurring error messages occurred.
   *************
   *************  ** Warning ** "TOTAL HOT WATER LOAD" - Target water temperature should be less than or equal to the hot water temperature error continues...
   *************  **   ~~~   **   This error occurred 205281 total times;
   *************  **   ~~~   **   during Warmup 0 times;
   *************  **   ~~~   **   during Sizing 0 times.
   *************  **   ~~~   **   Max=11.48366  Min=3.406795E-004
   *************
   *************  ** Warning ** SimHVAC: Exceeding Maximum iterations for all HVAC loops, during ANNUAL continues
   *************  **   ~~~   **   This error occurred 6 total times;
   *************  **   ~~~   **   during Warmup 0 times;
   *************  **   ~~~   **   during Sizing 0 times.
   *************
   *************
   ************* ===== Final Error Summary =====
   ************* The following error categories occurred.  Consider correcting or noting.
   ************* Nominally Unused Constructions
   ************* ..The nominally unused constructions warning is provided to alert you to potential conditions that can cause
   ************* ..extra time during simulation. Each construction is calculated by the algorithm indicated in the HeatBalanceAlgorithm
   ************* ..object. You may remove the constructions indicated (when you use the DisplayExtraWarnings option).
   *************
   ************* EnergyPlus Warmup Error Summary. During Warmup: 1 Warning; 0 Severe Errors.
   ************* EnergyPlus Sizing Error Summary. During Sizing: 4 Warning; 0 Severe Errors.
   ************* EnergyPlus Completed Successfully-- 205319 Warning; 0 Severe Errors; Elapsed Time=00hr 01min 52.01sec
