Program Version,EnergyPlus, Version 22.2.0-c249759bad, YMD=2023.09.01 19:02,
   ************* Beginning Zone Sizing Calculations
   ** Warning ** ProcessScheduleInput: Schedule:Constant="ALWAYS ON DISCRETE", Schedule Type Limits Name="ONOFF" not found -- will not be validated
   ** Warning ** Foundation:Kiva="KIVA FOUNDATION", no Interior Horizontal Insulation Material Name defined
   **   ~~~   ** Interior Horizontal Insulation Depth will not be used.
   ** Warning ** CheckUsedConstructions: There are 15 nominally unused constructions in input.
   **   ~~~   ** Each Unused construction is shown.
   ************* Construction=INTERIOR FLOOR
   ************* Construction=INTERIOR WINDOW
   ************* Construction=EXTERIOR DOOR
   ************* Construction=INTERIOR DOOR
   ************* Construction=GABLE CONSTRUCTION
   ************* Construction=CRAWL_FLOOR
   ************* Construction=INSULATED PIPE
   ************* Construction=PLAIN PIPE
   ************* Construction=TDD PIPE
   ************* Construction=TDD DOME
   ************* Construction=TDD DIFFUSER
   ************* Construction=CRAWL WALL
   ************* Construction=CEILING-FLOOR-LAYER
   ************* Construction=SLAB CONSTRUCTION W FULL R10 INSULATION
   ************* Construction=SLAB CONSTRUCTION W FULL R5 INSULATION
   ** Warning ** GetDXCoils: Coil:Heating:DX:SingleSpeed="DX_HEATING_COIL" curve values
   **   ~~~   ** ... Defrost Energy Input Ratio Function of Temperature Curve Name = DEFROSTEIR output is not equal to 1.0 (+ or - 10%) at rated conditions.
   **   ~~~   ** ... Curve output at rated conditions = 0.152
   ************* Beginning System Sizing Calculations
   ************* Beginning Plant Sizing Calculations
   ** Warning ** Coil:WaterHeating:AirToWaterHeatPump:Wrapped "HEAT PUMP WATER HEATER EVAPORATOR": Rated air volume flow rate per watt of rated total water heating capacity is out of range
   **   ~~~   ** Min Rated Vol Flow Per Watt=[4.027E-005], Rated Vol Flow Per Watt=[1.510E-004], Max Rated Vol Flow Per Watt=[8.056E-005]. See Input-Output Reference Manual for valid range.
   ************* SizeFan: : Potential issue with equipment sizing for Fan:OnOff HEAT PUMP WATER HEATER FAN
   **   ~~~   ** User-Specified Maximum Flow Rate [m3/s] = 0.22653
   **   ~~~   ** differs from Design Size Maximum Flow Rate [m3/s] = 7.55250E-002
   **   ~~~   ** This may, or may not, indicate mismatched component sizes.
   **   ~~~   ** Verify that the value entered is intended and is consistent with other components.
   ** Warning ** Water heater = WATER HEATER TANK:  Recovery Efficiency and Energy Factor could not be calculated during the test for standard ratings
   **   ~~~   ** Setpoint was never recovered and/or heater never turned on
   ** Warning ** Check input. Pump nominal power or motor efficiency is set to 0, for pump=MAINS PRESSURE
   ** Warning ** AirflowNetwork::Solver::validate_distribution: Heat pump water heater is simulated along with an AirflowNetwork but is not included in the AirflowNetwork.
   ** Warning ** Output:Meter: invalid Key Name="ELECTRIC_RANGE:INTERIOREQUIPMENT:ELECTRICITY" - not found.
   ** Warning ** Output:Meter: invalid Key Name="ELECTRIC_DRYER:INTERIOREQUIPMENT:ELECTRICITY" - not found.
   ** Warning ** Output:Meter: invalid Key Name="HEATRECOVERY:ELECTRICITY" - not found.
   ** Warning ** Output:Meter: invalid Key Name="HEATING:NATURALGAS" - not found.
   ** Warning ** Output:Meter: invalid Key Name="WATERSYSTEMS:NATURALGAS" - not found.
   ** Warning ** Output:Meter: invalid Key Name="PROPANE:FACILITY" - not found.
   ** Warning ** Output:Meter: invalid Key Name="HEATING:PROPANE" - not found.
   ************* Testing Individual Branch Integrity
   ************* All Branches passed integrity testing
   ************* Testing Individual Supply Air Path Integrity
   ************* All Supply Air Paths passed integrity testing
   ************* Testing Individual Return Air Path Integrity
   ************* All Return Air Paths passed integrity testing
   ************* No node connection errors were found.
   ************* Beginning Simulation
   ** Warning ** CalcEquipmentFlowRates: "TOTAL HOT WATER LOAD" - Target water temperature is greater than the hot water temperature by (1.36 C)
   **   ~~~   **  Environment=EXTREME_WINTER, at Simulation time=12/22 03:45 - 04:00
   **   ~~~   ** ...target water temperature     = 53.33 C
   **   ~~~   ** ...hot water temperature        = 51.98 C
   **   ~~~   ** ...Target water temperature should be less than or equal to the hot water temperature. Verify temperature setpoints and schedules.
   ** Warning ** SimHVAC: Maximum iterations (20) exceeded for all HVAC loops, at ANNUAL, 01/02 13:19 - 13:22
   **   ~~~   ** The solution for one or more of the Air Loop HVAC systems did not appear to converge
   **   ~~~   ** Air System Named = CENTRAL SYSTEM did not converge for mass flow rate
   **   ~~~   ** Check values should be zero. Most Recent values listed first.
   **   ~~~   ** Demand-to-Supply interface mass flow rate check value iteration history trace: 4.940506E-002,4.940506E-002,4.940506E-002,4.940506E-002,4.940506E-002,4.940506E-002,4.940506E-002,4.940506E-002,4.940506E-002,4.940506E-002,
   **   ~~~   ** Supply-to-demand interface deck 1 mass flow rate check value iteration history trace: 4.940506E-002,4.940506E-002,4.940506E-002,4.940506E-002,4.940506E-002,4.940506E-002,4.940506E-002,4.940506E-002,4.940506E-002,4.940506E-002,
   **   ~~~   ** Air System Named = CENTRAL SYSTEM did not converge for energy
   **   ~~~   ** Check values should be zero. Most Recent values listed first.
   **   ~~~   ** Demand-to-Supply interface energy check value iteration history trace: 974.646587,974.646587,974.646587,974.646587,974.646587,974.646587,974.646587,974.646587,974.646587,974.646587,
   **   ~~~   ** Supply-to-demand interface deck 1 energy check value iteration history trace: 1731.731385,1731.731385,1731.731385,1731.731385,1731.731384,1731.731384,1731.731384,1731.731384,1731.731384,1731.731384,
   ** Warning ** SimHVAC: Maximum iterations (20) exceeded for all HVAC loops, at ANNUAL, 01/13 09:15 - 09:20
   **   ~~~   ** The solution for one or more of the Air Loop HVAC systems did not appear to converge
   **   ~~~   ** Air System Named = CENTRAL SYSTEM did not converge for mass flow rate
   **   ~~~   ** Check values should be zero. Most Recent values listed first.
   **   ~~~   ** Demand-to-Supply interface mass flow rate check value iteration history trace: 4.881823E-002,4.881823E-002,4.881823E-002,4.881823E-002,4.881823E-002,4.881823E-002,4.881823E-002,4.881823E-002,4.881823E-002,4.881823E-002,
   **   ~~~   ** Supply-to-demand interface deck 1 mass flow rate check value iteration history trace: 4.881823E-002,4.881823E-002,4.881823E-002,4.881823E-002,4.881823E-002,4.881823E-002,4.881823E-002,4.881823E-002,4.881823E-002,4.881823E-002,
   **   ~~~   ** Air System Named = CENTRAL SYSTEM did not converge for energy
   **   ~~~   ** Check values should be zero. Most Recent values listed first.
   **   ~~~   ** Demand-to-Supply interface energy check value iteration history trace: 967.391831,967.391831,967.391831,967.391831,967.391830,967.391830,967.391830,967.391830,967.391830,967.391830,
   **   ~~~   ** Supply-to-demand interface deck 1 energy check value iteration history trace: 1660.820560,1660.820560,1660.820560,1660.820560,1660.820560,1660.820560,1660.820560,1660.820559,1660.820559,1660.820559,
   ** Warning ** SimHVAC: Maximum iterations (20) exceeded for all HVAC loops, at ANNUAL, 02/08 21:45 - 21:52
   **   ~~~   ** The solution for one or more of the Air Loop HVAC systems did not appear to converge
   **   ~~~   ** Air System Named = CENTRAL SYSTEM did not converge for mass flow rate
   **   ~~~   ** Check values should be zero. Most Recent values listed first.
   **   ~~~   ** Demand-to-Supply interface mass flow rate check value iteration history trace: 7.504140E-002,7.504140E-002,7.504140E-002,7.504140E-002,7.504140E-002,7.504140E-002,7.504140E-002,7.504140E-002,7.504140E-002,7.504140E-002,
   **   ~~~   ** Supply-to-demand interface deck 1 mass flow rate check value iteration history trace: 7.504140E-002,7.504140E-002,7.504140E-002,7.504140E-002,7.504140E-002,7.504140E-002,7.504140E-002,7.504140E-002,7.504140E-002,7.504140E-002,
   **   ~~~   ** Air System Named = CENTRAL SYSTEM did not converge for energy
   **   ~~~   ** Check values should be zero. Most Recent values listed first.
   **   ~~~   ** Demand-to-Supply interface energy check value iteration history trace: 1484.568602,1484.568602,1484.568601,1484.568601,1484.568601,1484.568601,1484.568601,1484.568601,1484.568601,1484.568601,
   **   ~~~   ** Supply-to-demand interface deck 1 energy check value iteration history trace: 2306.664992,2306.664992,2306.664992,2306.664992,2306.664991,2306.664991,2306.664991,2306.664991,2306.664991,2306.664991,
   ** Warning ** SimHVAC: Maximum iterations (20) exceeded for all HVAC loops, at ANNUAL, 03/13 07:00 - 07:08
   **   ~~~   ** The solution for one or more of the Air Loop HVAC systems did not appear to converge
   **   ~~~   ** Air System Named = CENTRAL SYSTEM did not converge for mass flow rate
   **   ~~~   ** Check values should be zero. Most Recent values listed first.
   **   ~~~   ** Demand-to-Supply interface mass flow rate check value iteration history trace: 6.328734E-002,6.328734E-002,6.328734E-002,6.328734E-002,6.328734E-002,6.328734E-002,6.328734E-002,6.328734E-002,6.328734E-002,6.328734E-002,
   **   ~~~   ** Supply-to-demand interface deck 1 mass flow rate check value iteration history trace: 6.328734E-002,6.328734E-002,6.328734E-002,6.328734E-002,6.328734E-002,6.328734E-002,6.328734E-002,6.328734E-002,6.328734E-002,6.328734E-002,
   **   ~~~   ** Air System Named = CENTRAL SYSTEM did not converge for energy
   **   ~~~   ** Check values should be zero. Most Recent values listed first.
   **   ~~~   ** Demand-to-Supply interface energy check value iteration history trace: 1254.092074,1254.092074,1254.092073,1254.092073,1254.092073,1254.092073,1254.092073,1254.092073,1254.092073,1254.092073,
   **   ~~~   ** Supply-to-demand interface deck 1 energy check value iteration history trace: 2231.619232,2231.619232,2231.619232,2231.619231,2231.619231,2231.619231,2231.619231,2231.619231,2231.619231,2231.619231,
   ** Warning ** SimHVAC: Maximum iterations (20) exceeded for all HVAC loops, at ANNUAL, 03/29 17:08 - 17:15
   **   ~~~   ** The solution for one or more of the Air Loop HVAC systems did not appear to converge
   **   ~~~   ** Air System Named = CENTRAL SYSTEM did not converge for mass flow rate
   **   ~~~   ** Check values should be zero. Most Recent values listed first.
   **   ~~~   ** Demand-to-Supply interface mass flow rate check value iteration history trace: 5.121660E-002,5.121660E-002,5.121660E-002,5.121660E-002,5.121660E-002,5.121660E-002,5.121660E-002,5.121660E-002,5.121660E-002,5.121660E-002,
   **   ~~~   ** Supply-to-demand interface deck 1 mass flow rate check value iteration history trace: 5.121660E-002,5.121660E-002,5.121660E-002,5.121660E-002,5.121660E-002,5.121660E-002,5.121660E-002,5.121660E-002,5.121660E-002,5.121660E-002,
   **   ~~~   ** Air System Named = CENTRAL SYSTEM did not converge for energy
   **   ~~~   ** Check values should be zero. Most Recent values listed first.
   **   ~~~   ** Demand-to-Supply interface energy check value iteration history trace: 1213.478150,1213.478150,1213.478150,1213.478150,1213.478150,1213.478150,1213.478150,1213.478150,1213.478150,1213.478151,
   **   ~~~   ** Supply-to-demand interface deck 1 energy check value iteration history trace: 529.834592,529.834592,529.834592,529.834592,529.834592,529.834592,529.834592,529.834592,529.834592,529.834592,
   ** Warning ** SimHVAC: Maximum iterations (20) exceeded for all HVAC loops, at ANNUAL, 03/29 18:00 - 18:15
   **   ~~~   ** The solution for one or more of the Air Loop HVAC systems did not appear to converge
   **   ~~~   ** Air System Named = CENTRAL SYSTEM did not converge for mass flow rate
   **   ~~~   ** Check values should be zero. Most Recent values listed first.
   **   ~~~   ** Demand-to-Supply interface mass flow rate check value iteration history trace: 6.790363E-002,6.790363E-002,6.790363E-002,6.790363E-002,6.790363E-002,6.790363E-002,6.790363E-002,6.790363E-002,6.790363E-002,6.790363E-002,
   **   ~~~   ** Supply-to-demand interface deck 1 mass flow rate check value iteration history trace: 6.790363E-002,6.790363E-002,6.790363E-002,6.790363E-002,6.790363E-002,6.790363E-002,6.790363E-002,6.790363E-002,6.790363E-002,6.790363E-002,
   **   ~~~   ** Air System Named = CENTRAL SYSTEM did not converge for energy
   **   ~~~   ** Check values should be zero. Most Recent values listed first.
   **   ~~~   ** Demand-to-Supply interface energy check value iteration history trace: 1603.350446,1603.350446,1603.350446,1603.350446,1603.350446,1603.350446,1603.350446,1603.350446,1603.350446,1603.350447,
   **   ~~~   ** Supply-to-demand interface deck 1 energy check value iteration history trace: 693.464352,693.464352,693.464352,693.464352,693.464352,693.464352,693.464352,693.464352,693.464352,693.464352,
   ** Warning ** SimHVAC: Maximum iterations (20) exceeded for all HVAC loops, at ANNUAL, 04/02 06:45 - 07:00
   **   ~~~   ** The solution for one or more of the Air Loop HVAC systems did not appear to converge
   **   ~~~   ** Air System Named = CENTRAL SYSTEM did not converge for mass flow rate
   **   ~~~   ** Check values should be zero. Most Recent values listed first.
   **   ~~~   ** Demand-to-Supply interface mass flow rate check value iteration history trace: 0.111266,0.111266,0.111266,0.111266,0.111266,0.111266,0.111266,0.111266,0.111266,0.111266,
   **   ~~~   ** Supply-to-demand interface deck 1 mass flow rate check value iteration history trace: 0.111266,0.111266,0.111266,0.111266,0.111266,0.111266,0.111266,0.111266,0.111266,0.111266,
   **   ~~~   ** Air System Named = CENTRAL SYSTEM did not converge for energy
   **   ~~~   ** Check values should be zero. Most Recent values listed first.
   **   ~~~   ** Demand-to-Supply interface energy check value iteration history trace: 2667.482671,2667.482671,2667.482672,2667.482672,2667.482672,2667.482672,2667.482672,2667.482673,2667.482673,2667.482673,
   **   ~~~   ** Supply-to-demand interface deck 1 energy check value iteration history trace: 1605.473140,1605.473141,1605.473141,1605.473141,1605.473141,1605.473141,1605.473141,1605.473141,1605.473141,1605.473142,
   ** Warning ** SimHVAC: Maximum iterations (20) exceeded for all HVAC loops, at ANNUAL, 04/02 11:00 - 11:15
   **   ~~~   ** The solution for one or more of the Air Loop HVAC systems did not appear to converge
   **   ~~~   ** Air System Named = CENTRAL SYSTEM did not converge for mass flow rate
   **   ~~~   ** Check values should be zero. Most Recent values listed first.
   **   ~~~   ** Demand-to-Supply interface mass flow rate check value iteration history trace: 0.142693,0.142693,0.142693,0.142693,0.142693,0.142693,0.142693,0.142693,0.142693,0.142693,
   **   ~~~   ** Supply-to-demand interface deck 1 mass flow rate check value iteration history trace: 0.142693,0.142693,0.142693,0.142693,0.142693,0.142693,0.142693,0.142693,0.142693,0.142693,
   **   ~~~   ** Air System Named = CENTRAL SYSTEM did not converge for energy
   **   ~~~   ** Check values should be zero. Most Recent values listed first.
   **   ~~~   ** Demand-to-Supply interface energy check value iteration history trace: 3426.856622,3426.856622,3426.856622,3426.856622,3426.856623,3426.856623,3426.856623,3426.856623,3426.856624,3426.856624,
   **   ~~~   ** Supply-to-demand interface deck 1 energy check value iteration history trace: 2103.811533,2103.811533,2103.811534,2103.811534,2103.811534,2103.811534,2103.811534,2103.811534,2103.811534,2103.811535,
   ** Warning ** SimHVAC: Maximum iterations (20) exceeded for all HVAC loops, at ANNUAL, 04/19 08:20 - 08:25
   **   ~~~   ** The solution for one or more of the Air Loop HVAC systems did not appear to converge
   **   ~~~   ** Air System Named = CENTRAL SYSTEM did not converge for mass flow rate
   **   ~~~   ** Check values should be zero. Most Recent values listed first.
   **   ~~~   ** Demand-to-Supply interface mass flow rate check value iteration history trace: 5.536407E-002,5.536407E-002,5.536407E-002,5.536407E-002,5.536407E-002,5.536407E-002,5.536407E-002,5.536407E-002,5.536407E-002,5.536407E-002,
   **   ~~~   ** Supply-to-demand interface deck 1 mass flow rate check value iteration history trace: 5.536407E-002,5.536407E-002,5.536407E-002,5.536407E-002,5.536407E-002,5.536407E-002,5.536407E-002,5.536407E-002,5.536407E-002,5.536407E-002,
   **   ~~~   ** Air System Named = CENTRAL SYSTEM did not converge for energy
   **   ~~~   ** Check values should be zero. Most Recent values listed first.
   **   ~~~   ** Demand-to-Supply interface energy check value iteration history trace: 1093.257420,1093.257420,1093.257420,1093.257420,1093.257420,1093.257420,1093.257419,1093.257419,1093.257419,1093.257419,
   **   ~~~   ** Supply-to-demand interface deck 1 energy check value iteration history trace: 1978.157270,1978.157270,1978.157270,1978.157270,1978.157270,1978.157270,1978.157270,1978.157270,1978.157269,1978.157269,
   ** Warning ** SimHVAC: Maximum iterations (20) exceeded for all HVAC loops, at ANNUAL, 10/08 09:30 - 09:45
   **   ~~~   ** The solution for one or more of the Air Loop HVAC systems did not appear to converge
   **   ~~~   ** Air System Named = CENTRAL SYSTEM did not converge for mass flow rate
   **   ~~~   ** Check values should be zero. Most Recent values listed first.
   **   ~~~   ** Demand-to-Supply interface mass flow rate check value iteration history trace: 5.700008E-002,5.700008E-002,5.700008E-002,5.700008E-002,5.700008E-002,5.700008E-002,5.700008E-002,5.700008E-002,5.700008E-002,5.700008E-002,
   **   ~~~   ** Supply-to-demand interface deck 1 mass flow rate check value iteration history trace: 5.700008E-002,5.700008E-002,5.700008E-002,5.700008E-002,5.700008E-002,5.700008E-002,5.700008E-002,5.700008E-002,5.700008E-002,5.700008E-002,
   **   ~~~   ** Air System Named = CENTRAL SYSTEM did not converge for energy
   **   ~~~   ** Check values should be zero. Most Recent values listed first.
   **   ~~~   ** Demand-to-Supply interface energy check value iteration history trace: 1129.610375,1129.610374,1129.610374,1129.610374,1129.610374,1129.610374,1129.610374,1129.610374,1129.610374,1129.610374,
   **   ~~~   ** Supply-to-demand interface deck 1 energy check value iteration history trace: 2005.599418,2005.599418,2005.599418,2005.599418,2005.599418,2005.599418,2005.599417,2005.599417,2005.599417,2005.599417,
   ** Warning ** SimHVAC: Maximum iterations (20) exceeded for all HVAC loops, at ANNUAL, 11/23 07:30 - 07:45
   **   ~~~   ** The solution for one or more of the Air Loop HVAC systems did not appear to converge
   **   ~~~   ** Air System Named = CENTRAL SYSTEM did not converge for mass flow rate
   **   ~~~   ** Check values should be zero. Most Recent values listed first.
   **   ~~~   ** Demand-to-Supply interface mass flow rate check value iteration history trace: 6.349308E-002,6.349308E-002,6.349308E-002,6.349308E-002,6.349308E-002,6.349308E-002,6.349308E-002,6.349308E-002,6.349308E-002,6.349308E-002,
   **   ~~~   ** Supply-to-demand interface deck 1 mass flow rate check value iteration history trace: 6.349308E-002,6.349308E-002,6.349308E-002,6.349308E-002,6.349308E-002,6.349308E-002,6.349308E-002,6.349308E-002,6.349308E-002,6.349308E-002,
   **   ~~~   ** Air System Named = CENTRAL SYSTEM did not converge for energy
   **   ~~~   ** Check values should be zero. Most Recent values listed first.
   **   ~~~   ** Demand-to-Supply interface energy check value iteration history trace: 1257.563585,1257.563585,1257.563585,1257.563585,1257.563585,1257.563585,1257.563585,1257.563585,1257.563585,1257.563585,
   **   ~~~   ** Supply-to-demand interface deck 1 energy check value iteration history trace: 2190.845276,2190.845276,2190.845275,2190.845275,2190.845275,2190.845275,2190.845275,2190.845275,2190.845275,2190.845275,
   ** Warning ** SimHVAC: Maximum iterations (20) exceeded for all HVAC loops, at ANNUAL, 11/26 12:38 - 12:45
   **   ~~~   ** The solution for one or more of the Air Loop HVAC systems did not appear to converge
   **   ~~~   ** Air System Named = CENTRAL SYSTEM did not converge for mass flow rate
   **   ~~~   ** Check values should be zero. Most Recent values listed first.
   **   ~~~   ** Demand-to-Supply interface mass flow rate check value iteration history trace: 0.127604,0.127604,0.127604,0.127604,0.127604,0.127604,0.127604,0.127604,0.127604,0.127604,
   **   ~~~   ** Supply-to-demand interface deck 1 mass flow rate check value iteration history trace: 0.127604,0.127604,0.127604,0.127604,0.127604,0.127604,0.127604,0.127604,0.127604,0.127604,
   **   ~~~   ** Air System Named = CENTRAL SYSTEM did not converge for energy
   **   ~~~   ** Check values should be zero. Most Recent values listed first.
   **   ~~~   ** Demand-to-Supply interface energy check value iteration history trace: 3021.590419,3021.590419,3021.590419,3021.590419,3021.590420,3021.590420,3021.590420,3021.590420,3021.590420,3021.590421,
   **   ~~~   ** Supply-to-demand interface deck 1 energy check value iteration history trace: 1123.006730,1123.006730,1123.006731,1123.006731,1123.006731,1123.006731,1123.006731,1123.006731,1123.006731,1123.006731,
   ** Warning ** SimHVAC: Maximum iterations (20) exceeded for all HVAC loops, at ANNUAL, 11/27 13:00 - 13:15
   **   ~~~   ** The solution for one or more of the Air Loop HVAC systems did not appear to converge
   **   ~~~   ** Air System Named = CENTRAL SYSTEM did not converge for mass flow rate
   **   ~~~   ** Check values should be zero. Most Recent values listed first.
   **   ~~~   ** Demand-to-Supply interface mass flow rate check value iteration history trace: 2.442273E-002,2.442273E-002,2.442273E-002,2.442273E-002,2.442273E-002,2.442273E-002,2.442273E-002,2.442273E-002,2.442273E-002,2.442273E-002,
   **   ~~~   ** Supply-to-demand interface deck 1 mass flow rate check value iteration history trace: 2.442273E-002,2.442273E-002,2.442273E-002,2.442273E-002,2.442273E-002,2.442273E-002,2.442273E-002,2.442273E-002,2.442273E-002,2.442273E-002,
   **   ~~~   ** Air System Named = CENTRAL SYSTEM did not converge for energy
   **   ~~~   ** Check values should be zero. Most Recent values listed first.
   **   ~~~   ** Demand-to-Supply interface energy check value iteration history trace: 571.507977,571.507977,571.507977,571.507977,571.507977,571.507977,571.507977,571.507977,571.507977,571.507977,
   **   ~~~   ** Supply-to-demand interface deck 1 energy check value iteration history trace: 222.471692,222.471692,222.471692,222.471692,222.471692,222.471692,222.471692,222.471692,222.471692,222.471692,
   ** Warning ** SimHVAC: Maximum iterations (20) exceeded for all HVAC loops, at ANNUAL, 11/28 06:45 - 07:00
   **   ~~~   ** The solution for one or more of the Air Loop HVAC systems did not appear to converge
   **   ~~~   ** Air System Named = CENTRAL SYSTEM did not converge for mass flow rate
   **   ~~~   ** Check values should be zero. Most Recent values listed first.
   **   ~~~   ** Demand-to-Supply interface mass flow rate check value iteration history trace: 5.943883E-002,5.943883E-002,5.943883E-002,5.943883E-002,5.943883E-002,5.943883E-002,5.943883E-002,5.943883E-002,5.943883E-002,5.943883E-002,
   **   ~~~   ** Supply-to-demand interface deck 1 mass flow rate check value iteration history trace: 5.943883E-002,5.943883E-002,5.943883E-002,5.943883E-002,5.943883E-002,5.943883E-002,5.943883E-002,5.943883E-002,5.943883E-002,5.943883E-002,
   **   ~~~   ** Air System Named = CENTRAL SYSTEM did not converge for energy
   **   ~~~   ** Check values should be zero. Most Recent values listed first.
   **   ~~~   ** Demand-to-Supply interface energy check value iteration history trace: 1176.373462,1176.373462,1176.373462,1176.373462,1176.373462,1176.373462,1176.373462,1176.373462,1176.373462,1176.373462,
   **   ~~~   ** Supply-to-demand interface deck 1 energy check value iteration history trace: 2088.588091,2088.588091,2088.588091,2088.588090,2088.588090,2088.588090,2088.588090,2088.588090,2088.588090,2088.588090,
   ************* Simulation Error Summary *************
   ** Warning ** The following Report Variables were requested but not generated -- check.rdd file
   **   ~~~   ** Either the IDF did not contain these elements, the variable name is misspelled,
   **   ~~~   ** or the requested variable is an advanced output which requires Output : Diagnostics, DisplayAdvancedReportVariables;
   ************* Key=*, VarName=BASEBOARD TOTAL HEATING ENERGY, Frequency=
   ************* Key=*, VarName=WATER HEATER NATURALGAS ENERGY, Frequency=
   ************* Key=*, VarName=COOLING COIL TOTAL HEATING ENERGY, Frequency=
   ************* There are 34 unused schedules in input.
   ************* There are 388 unused week schedules in input.
   ************* There are 396 unused day schedules in input.
   ************* Use Output:Diagnostics,DisplayUnusedSchedules; to see them.
   *************
   ************* ===== Recurring Error Summary =====
   ************* The following recurring error messages occurred.
   *************
   *************  ** Warning ** "TOTAL HOT WATER LOAD" - Target water temperature should be less than or equal to the hot water temperature error continues...
   *************  **   ~~~   **   This error occurred 55205 total times;
   *************  **   ~~~   **   during Warmup 0 times;
   *************  **   ~~~   **   during Sizing 0 times.
   *************  **   ~~~   **   Max=6.535512  Min=6.457408E-004
   *************
   *************  ** Warning ** SimHVAC: Exceeding Maximum iterations for all HVAC loops, during ANNUAL continues
   *************  **   ~~~   **   This error occurred 1 total times;
   *************  **   ~~~   **   during Warmup 0 times;
   *************  **   ~~~   **   during Sizing 0 times.
   *************
   *************
   ************* ===== Final Error Summary =====
   ************* The following error categories occurred.  Consider correcting or noting.
   ************* Nominally Unused Constructions
   ************* ..The nominally unused constructions warning is provided to alert you to potential conditions that can cause
   ************* ..extra time during simulation. Each construction is calculated by the algorithm indicated in the HeatBalanceAlgorithm
   ************* ..object. You may remove the constructions indicated (when you use the DisplayExtraWarnings option).
   *************
   ************* EnergyPlus Warmup Error Summary. During Warmup: 0 Warning; 0 Severe Errors.
   ************* EnergyPlus Sizing Error Summary. During Sizing: 4 Warning; 0 Severe Errors.
   ************* EnergyPlus Completed Successfully-- 55237 Warning; 0 Severe Errors; Elapsed Time=00hr 01min 33.06sec
