Program Version,EnergyPlus, Version 22.2.0-c249759bad, YMD=2023.09.01 15:20,
   ************* Beginning Zone Sizing Calculations
   ** Warning ** ProcessScheduleInput: Schedule:Constant="ALWAYS ON DISCRETE", Schedule Type Limits Name="ONOFF" not found -- will not be validated
   ** Warning ** Foundation:Kiva="KIVA FOUNDATION", no Interior Horizontal Insulation Material Name defined
   **   ~~~   ** Interior Horizontal Insulation Depth will not be used.
   ** Warning ** CheckUsedConstructions: There are 15 nominally unused constructions in input.
   **   ~~~   ** Each Unused construction is shown.
   ************* Construction=INTERIOR FLOOR
   ************* Construction=INTERIOR WINDOW
   ************* Construction=EXTERIOR DOOR
   ************* Construction=INTERIOR DOOR
   ************* Construction=GABLE CONSTRUCTION
   ************* Construction=CRAWL_FLOOR
   ************* Construction=INSULATED PIPE
   ************* Construction=PLAIN PIPE
   ************* Construction=TDD PIPE
   ************* Construction=TDD DOME
   ************* Construction=TDD DIFFUSER
   ************* Construction=CRAWL WALL
   ************* Construction=CEILING-FLOOR-LAYER
   ************* Construction=SLAB CONSTRUCTION W FULL R10 INSULATION
   ************* Construction=SLAB CONSTRUCTION W FULL R5 INSULATION
   ** Warning ** GetDXCoils: Coil:Heating:DX:SingleSpeed="DX_HEATING_COIL" curve values
   **   ~~~   ** ... Defrost Energy Input Ratio Function of Temperature Curve Name = DEFROSTEIR output is not equal to 1.0 (+ or - 10%) at rated conditions.
   **   ~~~   ** ... Curve output at rated conditions = 0.152
   ************* Beginning System Sizing Calculations
   ************* Beginning Plant Sizing Calculations
   ** Warning ** SizeDXCoil Coil:Cooling:DX:SingleSpeed DX_COOLING_COIL
   **   ~~~   ** ...Gross Rated Total Cooling Capacity [W] will be limited by the maximum rated volume flow per rated total capacity ratio.
   **   ~~~   ** ...DX coil volume flow rate ( m3/s ) = 0.408494
   **   ~~~   ** ...Requested capacity ( W ) = 6592.010
   **   ~~~   ** ...Requested flow/capacity ratio ( m3/s/W ) = 6.196E-005
   **   ~~~   ** ...Maximum flow/capacity ratio ( m3/s/W ) = 6.041E-005
   **   ~~~   ** ...Adjusted capacity ( W ) = 6762.027
   ** Warning ** Coil:WaterHeating:AirToWaterHeatPump:Wrapped "HEAT PUMP WATER HEATER EVAPORATOR": Rated air volume flow rate per watt of rated total water heating capacity is out of range
   **   ~~~   ** Min Rated Vol Flow Per Watt=[4.027E-005], Rated Vol Flow Per Watt=[1.386E-004], Max Rated Vol Flow Per Watt=[8.056E-005]. See Input-Output Reference Manual for valid range.
   ** Warning ** Water heater = WATER HEATER TANK:  Recovery Efficiency and Energy Factor could not be calculated during the test for standard ratings
   **   ~~~   ** Setpoint was never recovered and/or heater never turned on
   ** Warning ** Check input. Pump nominal power or motor efficiency is set to 0, for pump=MAINS PRESSURE
   ** Warning ** Output:Meter: invalid Key Name="ELECTRIC_RANGE:INTERIOREQUIPMENT:ELECTRICITY" - not found.
   ** Warning ** Output:Meter: invalid Key Name="ELECTRIC_DRYER:INTERIOREQUIPMENT:ELECTRICITY" - not found.
   ** Warning ** Output:Meter: invalid Key Name="HEATRECOVERY:ELECTRICITY" - not found.
   ** Warning ** Output:Meter: invalid Key Name="HEATING:NATURALGAS" - not found.
   ** Warning ** Output:Meter: invalid Key Name="WATERSYSTEMS:NATURALGAS" - not found.
   ** Warning ** Output:Meter: invalid Key Name="PROPANE:FACILITY" - not found.
   ** Warning ** Output:Meter: invalid Key Name="HEATING:PROPANE" - not found.
   ************* Testing Individual Branch Integrity
   ************* All Branches passed integrity testing
   ************* Testing Individual Supply Air Path Integrity
   ************* All Supply Air Paths passed integrity testing
   ************* Testing Individual Return Air Path Integrity
   ************* All Return Air Paths passed integrity testing
   ************* No node connection errors were found.
   ************* Beginning Simulation
   ** Warning ** AirflowNetwork::Solver::validate_distribution: Heat pump water heater is simulated along with an AirflowNetwork but is not included in the AirflowNetwork.
   ** Warning ** CalcEquipmentFlowRates: "TOTAL HOT WATER LOAD" - Target water temperature is greater than the hot water temperature by (1.69 C)
   **   ~~~   **  Environment=EXTREME_WINTER, at Simulation time=01/06 06:00 - 06:15
   **   ~~~   ** ...target water temperature     = 53.33 C
   **   ~~~   ** ...hot water temperature        = 51.65 C
   **   ~~~   ** ...Target water temperature should be less than or equal to the hot water temperature. Verify temperature setpoints and schedules.
   ** Warning ** SimHVAC: Maximum iterations (20) exceeded for all HVAC loops, at ANNUAL, 01/02 18:30 - 18:45
   **   ~~~   ** The solution for one or more of the Air Loop HVAC systems did not appear to converge
   **   ~~~   ** Air System Named = CENTRAL SYSTEM did not converge for mass flow rate
   **   ~~~   ** Check values should be zero. Most Recent values listed first.
   **   ~~~   ** Demand-to-Supply interface mass flow rate check value iteration history trace: 7.380132E-002,7.380132E-002,7.380132E-002,7.380132E-002,7.380132E-002,7.380132E-002,7.380132E-002,7.380132E-002,7.380132E-002,7.380132E-002,
   **   ~~~   ** Supply-to-demand interface deck 1 mass flow rate check value iteration history trace: 7.380132E-002,7.380132E-002,7.380132E-002,7.380132E-002,7.380132E-002,7.380132E-002,7.380132E-002,7.380132E-002,7.380132E-002,7.380132E-002,
   **   ~~~   ** Air System Named = CENTRAL SYSTEM did not converge for energy
   **   ~~~   ** Check values should be zero. Most Recent values listed first.
   **   ~~~   ** Demand-to-Supply interface energy check value iteration history trace: 1462.224761,1462.224761,1462.224761,1462.224761,1462.224761,1462.224761,1462.224761,1462.224761,1462.224761,1462.224761,
   **   ~~~   ** Supply-to-demand interface deck 1 energy check value iteration history trace: 2514.383442,2514.383442,2514.383442,2514.383442,2514.383442,2514.383442,2514.383442,2514.383441,2514.383441,2514.383441,
   ** Warning ** SimHVAC: Maximum iterations (20) exceeded for all HVAC loops, at ANNUAL, 01/02 18:30 - 18:38
   **   ~~~   ** The solution for one or more of the Air Loop HVAC systems did not appear to converge
   **   ~~~   ** Air System Named = CENTRAL SYSTEM did not converge for mass flow rate
   **   ~~~   ** Check values should be zero. Most Recent values listed first.
   **   ~~~   ** Demand-to-Supply interface mass flow rate check value iteration history trace: 7.356032E-002,7.356032E-002,7.356032E-002,7.356032E-002,7.356032E-002,7.356032E-002,7.356032E-002,7.356032E-002,7.356032E-002,7.356032E-002,
   **   ~~~   ** Supply-to-demand interface deck 1 mass flow rate check value iteration history trace: 7.356032E-002,7.356032E-002,7.356032E-002,7.356032E-002,7.356032E-002,7.356032E-002,7.356032E-002,7.356032E-002,7.356032E-002,7.356032E-002,
   **   ~~~   ** Air System Named = CENTRAL SYSTEM did not converge for energy
   **   ~~~   ** Check values should be zero. Most Recent values listed first.
   **   ~~~   ** Demand-to-Supply interface energy check value iteration history trace: 1457.449647,1457.449647,1457.449646,1457.449646,1457.449646,1457.449646,1457.449646,1457.449646,1457.449646,1457.449646,
   **   ~~~   ** Supply-to-demand interface deck 1 energy check value iteration history trace: 2506.173781,2506.173780,2506.173780,2506.173780,2506.173780,2506.173780,2506.173780,2506.173780,2506.173780,2506.173780,
   ** Warning ** SimHVAC: Maximum iterations (20) exceeded for all HVAC loops, at ANNUAL, 02/06 07:45 - 08:00
   **   ~~~   ** The solution for one or more of the Air Loop HVAC systems did not appear to converge
   **   ~~~   ** Air System Named = CENTRAL SYSTEM did not converge for mass flow rate
   **   ~~~   ** Check values should be zero. Most Recent values listed first.
   **   ~~~   ** Demand-to-Supply interface mass flow rate check value iteration history trace: 5.135977E-002,5.135977E-002,5.135977E-002,5.135977E-002,5.135977E-002,5.135977E-002,5.135977E-002,5.135977E-002,5.135977E-002,5.135977E-002,
   **   ~~~   ** Supply-to-demand interface deck 1 mass flow rate check value iteration history trace: 5.135977E-002,5.135977E-002,5.135977E-002,5.135977E-002,5.135977E-002,5.135977E-002,5.135977E-002,5.135977E-002,5.135977E-002,5.135977E-002,
   **   ~~~   ** Air System Named = CENTRAL SYSTEM did not converge for energy
   **   ~~~   ** Check values should be zero. Most Recent values listed first.
   **   ~~~   ** Demand-to-Supply interface energy check value iteration history trace: 1017.510394,1017.510394,1017.510394,1017.510394,1017.510393,1017.510393,1017.510393,1017.510393,1017.510393,1017.510392,
   **   ~~~   ** Supply-to-demand interface deck 1 energy check value iteration history trace: 1732.365831,1732.365831,1732.365831,1732.365830,1732.365830,1732.365830,1732.365830,1732.365829,1732.365829,1732.365829,
   ** Warning ** SimHVAC: Maximum iterations (20) exceeded for all HVAC loops, at ANNUAL, 03/11 09:40 - 09:41
   **   ~~~   ** The solution for one or more of the Air Loop HVAC systems did not appear to converge
   **   ~~~   ** Air System Named = CENTRAL SYSTEM did not converge for mass flow rate
   **   ~~~   ** Check values should be zero. Most Recent values listed first.
   **   ~~~   ** Demand-to-Supply interface mass flow rate check value iteration history trace: 8.113693E-002,8.113693E-002,8.113693E-002,8.113693E-002,8.113693E-002,8.113693E-002,8.113693E-002,8.113693E-002,8.113693E-002,8.113693E-002,
   **   ~~~   ** Supply-to-demand interface deck 1 mass flow rate check value iteration history trace: 8.113693E-002,8.113693E-002,8.113693E-002,8.113693E-002,8.113693E-002,8.113693E-002,8.113693E-002,8.113693E-002,8.113693E-002,8.113693E-002,
   **   ~~~   ** Air System Named = CENTRAL SYSTEM did not converge for energy
   **   ~~~   ** Check values should be zero. Most Recent values listed first.
   **   ~~~   ** Demand-to-Supply interface energy check value iteration history trace: 1604.159124,1604.159124,1604.159124,1604.159124,1604.159124,1604.159124,1604.159123,1604.159123,1604.159123,1604.159123,
   **   ~~~   ** Supply-to-demand interface deck 1 energy check value iteration history trace: 2858.529926,2858.529926,2858.529926,2858.529926,2858.529926,2858.529926,2858.529926,2858.529926,2858.529926,2858.529925,
   ** Warning ** SimHVAC: Maximum iterations (20) exceeded for all HVAC loops, at ANNUAL, 03/25 08:00 - 08:15
   **   ~~~   ** The solution for one or more of the Air Loop HVAC systems did not appear to converge
   **   ~~~   ** Air System Named = CENTRAL SYSTEM did not converge for mass flow rate
   **   ~~~   ** Check values should be zero. Most Recent values listed first.
   **   ~~~   ** Demand-to-Supply interface mass flow rate check value iteration history trace: 7.723220E-002,7.723220E-002,7.723220E-002,7.723220E-002,7.723220E-002,7.723220E-002,7.723220E-002,7.723220E-002,7.723220E-002,7.723220E-002,
   **   ~~~   ** Supply-to-demand interface deck 1 mass flow rate check value iteration history trace: 7.723220E-002,7.723220E-002,7.723220E-002,7.723220E-002,7.723220E-002,7.723220E-002,7.723220E-002,7.723220E-002,7.723220E-002,7.723220E-002,
   **   ~~~   ** Air System Named = CENTRAL SYSTEM did not converge for energy
   **   ~~~   ** Check values should be zero. Most Recent values listed first.
   **   ~~~   ** Demand-to-Supply interface energy check value iteration history trace: 1530.579251,1530.579251,1530.579251,1530.579251,1530.579251,1530.579251,1530.579251,1530.579251,1530.579250,1530.579250,
   **   ~~~   ** Supply-to-demand interface deck 1 energy check value iteration history trace: 2576.055448,2576.055448,2576.055448,2576.055448,2576.055448,2576.055448,2576.055448,2576.055447,2576.055447,2576.055447,
   ** Warning ** SimHVAC: Maximum iterations (20) exceeded for all HVAC loops, at ANNUAL, 04/11 08:45 - 09:00
   **   ~~~   ** The solution for one or more of the Air Loop HVAC systems did not appear to converge
   **   ~~~   ** Air System Named = CENTRAL SYSTEM did not converge for mass flow rate
   **   ~~~   ** Check values should be zero. Most Recent values listed first.
   **   ~~~   ** Demand-to-Supply interface mass flow rate check value iteration history trace: 0.103184,0.103184,0.103184,0.103184,0.103184,0.103184,0.103184,0.103184,0.103184,0.103184,
   **   ~~~   ** Supply-to-demand interface deck 1 mass flow rate check value iteration history trace: 0.103184,0.103184,0.103184,0.103184,0.103184,0.103184,0.103184,0.103184,0.103184,0.103184,
   **   ~~~   ** Air System Named = CENTRAL SYSTEM did not converge for energy
   **   ~~~   ** Check values should be zero. Most Recent values listed first.
   **   ~~~   ** Demand-to-Supply interface energy check value iteration history trace: 2444.074643,2444.074644,2444.074644,2444.074644,2444.074644,2444.074645,2444.074645,2444.074645,2444.074645,2444.074645,
   **   ~~~   ** Supply-to-demand interface deck 1 energy check value iteration history trace: 1454.804066,1454.804067,1454.804067,1454.804067,1454.804067,1454.804067,1454.804067,1454.804067,1454.804067,1454.804068,
   ** Warning ** SimHVAC: Maximum iterations (20) exceeded for all HVAC loops, at ANNUAL, 04/29 08:48 - 08:50
   **   ~~~   ** The solution for one or more of the Air Loop HVAC systems did not appear to converge
   **   ~~~   ** Air System Named = CENTRAL SYSTEM did not converge for mass flow rate
   **   ~~~   ** Check values should be zero. Most Recent values listed first.
   **   ~~~   ** Demand-to-Supply interface mass flow rate check value iteration history trace: 0.219376,0.219376,0.219376,0.219376,0.219376,0.219376,0.219376,0.219376,0.219376,0.219376,
   **   ~~~   ** Supply-to-demand interface deck 1 mass flow rate check value iteration history trace: 0.219376,0.219376,0.219376,0.219376,0.219376,0.219376,0.219376,0.219376,0.219376,0.219376,
   **   ~~~   ** Air System Named = CENTRAL SYSTEM did not converge for energy
   **   ~~~   ** Check values should be zero. Most Recent values listed first.
   **   ~~~   ** Demand-to-Supply interface energy check value iteration history trace: 5181.953273,5181.953275,5181.953276,5181.953278,5181.953280,5181.953281,5181.953283,5181.953284,5181.953286,5181.953287,
   **   ~~~   ** Supply-to-demand interface deck 1 energy check value iteration history trace: 2759.343545,2759.343546,2759.343547,2759.343548,2759.343549,2759.343550,2759.343550,2759.343551,2759.343552,2759.343553,
   ** Warning ** SimHVAC: Maximum iterations (20) exceeded for all HVAC loops, at ANNUAL, 04/29 09:05 - 09:07
   **   ~~~   ** The solution for one or more of the Air Loop HVAC systems did not appear to converge
   **   ~~~   ** Air System Named = CENTRAL SYSTEM did not converge for mass flow rate
   **   ~~~   ** Check values should be zero. Most Recent values listed first.
   **   ~~~   ** Demand-to-Supply interface mass flow rate check value iteration history trace: 0.216580,0.216580,0.216580,0.216580,0.216580,0.216580,0.216580,0.216580,0.216580,0.216580,
   **   ~~~   ** Supply-to-demand interface deck 1 mass flow rate check value iteration history trace: 0.216580,0.216580,0.216580,0.216580,0.216580,0.216580,0.216580,0.216580,0.216580,0.216580,
   **   ~~~   ** Air System Named = CENTRAL SYSTEM did not converge for energy
   **   ~~~   ** Check values should be zero. Most Recent values listed first.
   **   ~~~   ** Demand-to-Supply interface energy check value iteration history trace: 5115.449844,5115.449845,5115.449847,5115.449848,5115.449849,5115.449851,5115.449852,5115.449854,5115.449855,5115.449857,
   **   ~~~   ** Supply-to-demand interface deck 1 energy check value iteration history trace: 2711.921659,2711.921660,2711.921661,2711.921661,2711.921662,2711.921663,2711.921664,2711.921664,2711.921665,2711.921666,
   ** Warning ** SimHVAC: Maximum iterations (20) exceeded for all HVAC loops, at ANNUAL, 04/29 09:15 - 09:30
   **   ~~~   ** The solution for one or more of the Air Loop HVAC systems did not appear to converge
   **   ~~~   ** Air System Named = CENTRAL SYSTEM did not converge for mass flow rate
   **   ~~~   ** Check values should be zero. Most Recent values listed first.
   **   ~~~   ** Demand-to-Supply interface mass flow rate check value iteration history trace: 5.592961E-002,5.592961E-002,5.592961E-002,5.592961E-002,5.592961E-002,5.592961E-002,5.592961E-002,5.592961E-002,5.592961E-002,5.592961E-002,
   **   ~~~   ** Supply-to-demand interface deck 1 mass flow rate check value iteration history trace: 5.592961E-002,5.592961E-002,5.592961E-002,5.592961E-002,5.592961E-002,5.592961E-002,5.592961E-002,5.592961E-002,5.592961E-002,5.592961E-002,
   **   ~~~   ** Air System Named = CENTRAL SYSTEM did not converge for energy
   **   ~~~   ** Check values should be zero. Most Recent values listed first.
   **   ~~~   ** Demand-to-Supply interface energy check value iteration history trace: 1319.735355,1319.735355,1319.735356,1319.735356,1319.735356,1319.735357,1319.735357,1319.735357,1319.735358,1319.735358,
   **   ~~~   ** Supply-to-demand interface deck 1 energy check value iteration history trace: 696.332164,696.332164,696.332165,696.332165,696.332165,696.332165,696.332165,696.332166,696.332166,696.332166,
   ** Warning ** SimHVAC: Maximum iterations (20) exceeded for all HVAC loops, at ANNUAL, 11/18 19:15 - 19:30
   **   ~~~   ** The solution for one or more of the Air Loop HVAC systems did not appear to converge
   **   ~~~   ** Air System Named = CENTRAL SYSTEM did not converge for mass flow rate
   **   ~~~   ** Check values should be zero. Most Recent values listed first.
   **   ~~~   ** Demand-to-Supply interface mass flow rate check value iteration history trace: 3.587282E-002,3.587282E-002,3.587282E-002,3.587282E-002,3.587282E-002,3.587282E-002,3.587282E-002,3.587282E-002,3.587282E-002,3.587282E-002,
   **   ~~~   ** Supply-to-demand interface deck 1 mass flow rate check value iteration history trace: 3.587282E-002,3.587282E-002,3.587282E-002,3.587282E-002,3.587282E-002,3.587282E-002,3.587282E-002,3.587282E-002,3.587282E-002,3.587282E-002,
   **   ~~~   ** Air System Named = CENTRAL SYSTEM did not converge for energy
   **   ~~~   ** Check values should be zero. Most Recent values listed first.
   **   ~~~   ** Demand-to-Supply interface energy check value iteration history trace: 845.308152,845.308152,845.308152,845.308152,845.308152,845.308152,845.308152,845.308152,845.308152,845.308152,
   **   ~~~   ** Supply-to-demand interface deck 1 energy check value iteration history trace: 466.368680,466.368680,466.368680,466.368680,466.368680,466.368680,466.368681,466.368681,466.368681,466.368681,
   ** Warning ** SimHVAC: Maximum iterations (20) exceeded for all HVAC loops, at ANNUAL, 11/19 10:43 - 10:45
   **   ~~~   ** The solution for one or more of the Air Loop HVAC systems did not appear to converge
   **   ~~~   ** Air System Named = CENTRAL SYSTEM did not converge for mass flow rate
   **   ~~~   ** Check values should be zero. Most Recent values listed first.
   **   ~~~   ** Demand-to-Supply interface mass flow rate check value iteration history trace: 2.299787E-002,2.299787E-002,2.299787E-002,2.299787E-002,2.299787E-002,2.299787E-002,2.299787E-002,2.299787E-002,2.299787E-002,2.299787E-002,
   **   ~~~   ** Supply-to-demand interface deck 1 mass flow rate check value iteration history trace: 2.299787E-002,2.299787E-002,2.299787E-002,2.299787E-002,2.299787E-002,2.299787E-002,2.299787E-002,2.299787E-002,2.299787E-002,2.299787E-002,
   **   ~~~   ** Air System Named = CENTRAL SYSTEM did not converge for energy
   **   ~~~   ** Check values should be zero. Most Recent values listed first.
   **   ~~~   ** Demand-to-Supply interface energy check value iteration history trace: 538.714912,538.714913,538.714913,538.714913,538.714913,538.714913,538.714913,538.714913,538.714913,538.714913,
   **   ~~~   ** Supply-to-demand interface deck 1 energy check value iteration history trace: 308.067246,308.067246,308.067246,308.067246,308.067246,308.067246,308.067246,308.067246,308.067246,308.067246,
   ************* Simulation Error Summary *************
   ** Warning ** The following Report Variables were requested but not generated -- check.rdd file
   **   ~~~   ** Either the IDF did not contain these elements, the variable name is misspelled,
   **   ~~~   ** or the requested variable is an advanced output which requires Output : Diagnostics, DisplayAdvancedReportVariables;
   ************* Key=*, VarName=BASEBOARD TOTAL HEATING ENERGY, Frequency=
   ************* Key=*, VarName=WATER HEATER NATURALGAS ENERGY, Frequency=
   ************* Key=*, VarName=COOLING COIL TOTAL HEATING ENERGY, Frequency=
   ************* There are 34 unused schedules in input.
   ************* There are 388 unused week schedules in input.
   ************* There are 396 unused day schedules in input.
   ************* Use Output:Diagnostics,DisplayUnusedSchedules; to see them.
   *************
   ************* ===== Recurring Error Summary =====
   ************* The following recurring error messages occurred.
   *************
   *************  ** Warning ** "TOTAL HOT WATER LOAD" - Target water temperature should be less than or equal to the hot water temperature error continues...
   *************  **   ~~~   **   This error occurred 105939 total times;
   *************  **   ~~~   **   during Warmup 0 times;
   *************  **   ~~~   **   during Sizing 0 times.
   *************  **   ~~~   **   Max=8.423253  Min=6.989339E-005
   *************
   *************
   ************* ===== Final Error Summary =====
   ************* The following error categories occurred.  Consider correcting or noting.
   ************* Nominally Unused Constructions
   ************* ..The nominally unused constructions warning is provided to alert you to potential conditions that can cause
   ************* ..extra time during simulation. Each construction is calculated by the algorithm indicated in the HeatBalanceAlgorithm
   ************* ..object. You may remove the constructions indicated (when you use the DisplayExtraWarnings option).
   *************
   ************* EnergyPlus Warmup Error Summary. During Warmup: 1 Warning; 0 Severe Errors.
   ************* EnergyPlus Sizing Error Summary. During Sizing: 4 Warning; 0 Severe Errors.
   ************* EnergyPlus Completed Successfully-- 105968 Warning; 0 Severe Errors; Elapsed Time=00hr 05min 39.00sec
