Program Version,EnergyPlus, Version 22.2.0-c249759bad, YMD=2023.09.01 18:51,
   ************* Beginning Zone Sizing Calculations
   ** Warning ** ProcessScheduleInput: Schedule:Constant="ALWAYS ON DISCRETE", Schedule Type Limits Name="ONOFF" not found -- will not be validated
   ** Warning ** Foundation:Kiva="KIVA FOUNDATION", no Interior Horizontal Insulation Material Name defined
   **   ~~~   ** Interior Horizontal Insulation Depth will not be used.
   ** Warning ** CheckUsedConstructions: There are 15 nominally unused constructions in input.
   **   ~~~   ** Each Unused construction is shown.
   ************* Construction=INTERIOR FLOOR
   ************* Construction=INTERIOR WINDOW
   ************* Construction=EXTERIOR DOOR
   ************* Construction=INTERIOR DOOR
   ************* Construction=GABLE CONSTRUCTION
   ************* Construction=CRAWL_FLOOR
   ************* Construction=INSULATED PIPE
   ************* Construction=PLAIN PIPE
   ************* Construction=TDD PIPE
   ************* Construction=TDD DOME
   ************* Construction=TDD DIFFUSER
   ************* Construction=CRAWL WALL
   ************* Construction=CEILING-FLOOR-LAYER
   ************* Construction=SLAB CONSTRUCTION W FULL R10 INSULATION
   ************* Construction=SLAB CONSTRUCTION W FULL R5 INSULATION
   ** Warning ** GetDXCoils: Coil:Heating:DX:SingleSpeed="DX_HEATING_COIL" curve values
   **   ~~~   ** ... Defrost Energy Input Ratio Function of Temperature Curve Name = DEFROSTEIR output is not equal to 1.0 (+ or - 10%) at rated conditions.
   **   ~~~   ** ... Curve output at rated conditions = 0.152
   ************* Beginning System Sizing Calculations
   ************* Beginning Plant Sizing Calculations
   ** Warning ** SizeDXCoil Coil:Cooling:DX:SingleSpeed DX_COOLING_COIL
   **   ~~~   ** ...Gross Rated Total Cooling Capacity [W] will be limited by the maximum rated volume flow per rated total capacity ratio.
   **   ~~~   ** ...DX coil volume flow rate ( m3/s ) = 0.295291
   **   ~~~   ** ...Requested capacity ( W ) = 4435.098
   **   ~~~   ** ...Requested flow/capacity ratio ( m3/s/W ) = 6.658E-005
   **   ~~~   ** ...Maximum flow/capacity ratio ( m3/s/W ) = 6.041E-005
   **   ~~~   ** ...Adjusted capacity ( W ) = 4888.129
   ** Warning ** Coil:WaterHeating:AirToWaterHeatPump:Wrapped "HEAT PUMP WATER HEATER EVAPORATOR": Rated air volume flow rate per watt of rated total water heating capacity is out of range
   **   ~~~   ** Min Rated Vol Flow Per Watt=[4.027E-005], Rated Vol Flow Per Watt=[1.510E-004], Max Rated Vol Flow Per Watt=[8.056E-005]. See Input-Output Reference Manual for valid range.
   ************* SizeFan: : Potential issue with equipment sizing for Fan:OnOff HEAT PUMP WATER HEATER FAN
   **   ~~~   ** User-Specified Maximum Flow Rate [m3/s] = 0.22653
   **   ~~~   ** differs from Design Size Maximum Flow Rate [m3/s] = 7.55250E-002
   **   ~~~   ** This may, or may not, indicate mismatched component sizes.
   **   ~~~   ** Verify that the value entered is intended and is consistent with other components.
   ** Warning ** Water heater = WATER HEATER TANK:  Recovery Efficiency and Energy Factor could not be calculated during the test for standard ratings
   **   ~~~   ** Setpoint was never recovered and/or heater never turned on
   ** Warning ** Check input. Pump nominal power or motor efficiency is set to 0, for pump=MAINS PRESSURE
   ** Warning ** Output:Meter: invalid Key Name="ELECTRIC_RANGE:INTERIOREQUIPMENT:ELECTRICITY" - not found.
   ** Warning ** Output:Meter: invalid Key Name="ELECTRIC_DRYER:INTERIOREQUIPMENT:ELECTRICITY" - not found.
   ** Warning ** Output:Meter: invalid Key Name="HEATRECOVERY:ELECTRICITY" - not found.
   ** Warning ** Output:Meter: invalid Key Name="HEATING:NATURALGAS" - not found.
   ** Warning ** Output:Meter: invalid Key Name="WATERSYSTEMS:NATURALGAS" - not found.
   ** Warning ** Output:Meter: invalid Key Name="PROPANE:FACILITY" - not found.
   ** Warning ** Output:Meter: invalid Key Name="HEATING:PROPANE" - not found.
   ************* Testing Individual Branch Integrity
   ************* All Branches passed integrity testing
   ************* Testing Individual Supply Air Path Integrity
   ************* All Supply Air Paths passed integrity testing
   ************* Testing Individual Return Air Path Integrity
   ************* All Return Air Paths passed integrity testing
   ************* No node connection errors were found.
   ************* Beginning Simulation
   ** Warning ** AirflowNetwork::Solver::validate_distribution: Heat pump water heater is simulated along with an AirflowNetwork but is not included in the AirflowNetwork.
   ** Warning ** CalcEquipmentFlowRates: "TOTAL HOT WATER LOAD" - Target water temperature is greater than the hot water temperature by (1.51 C)
   **   ~~~   **  Environment=EXTREME_WINTER, at Simulation time=02/15 03:45 - 04:00
   **   ~~~   ** ...target water temperature     = 53.33 C
   **   ~~~   ** ...hot water temperature        = 51.82 C
   **   ~~~   ** ...Target water temperature should be less than or equal to the hot water temperature. Verify temperature setpoints and schedules.
   ** Warning ** SimHVAC: Maximum iterations (20) exceeded for all HVAC loops, at ANNUAL, 01/17 07:00 - 07:08
   **   ~~~   ** The solution for one or more of the Air Loop HVAC systems did not appear to converge
   **   ~~~   ** Air System Named = CENTRAL SYSTEM did not converge for mass flow rate
   **   ~~~   ** Check values should be zero. Most Recent values listed first.
   **   ~~~   ** Demand-to-Supply interface mass flow rate check value iteration history trace: 6.086176E-002,6.086176E-002,6.086176E-002,6.086176E-002,6.086176E-002,6.086176E-002,6.086176E-002,6.086176E-002,6.086176E-002,6.086176E-002,
   **   ~~~   ** Supply-to-demand interface deck 1 mass flow rate check value iteration history trace: 6.086176E-002,6.086176E-002,6.086176E-002,6.086176E-002,6.086176E-002,6.086176E-002,6.086176E-002,6.086176E-002,6.086176E-002,6.086176E-002,
   **   ~~~   ** Air System Named = CENTRAL SYSTEM did not converge for energy
   **   ~~~   ** Check values should be zero. Most Recent values listed first.
   **   ~~~   ** Demand-to-Supply interface energy check value iteration history trace: 1203.035018,1203.035018,1203.035018,1203.035018,1203.035018,1203.035018,1203.035018,1203.035018,1203.035018,1203.035018,
   **   ~~~   ** Supply-to-demand interface deck 1 energy check value iteration history trace: 2155.172340,2155.172340,2155.172340,2155.172340,2155.172340,2155.172339,2155.172339,2155.172339,2155.172339,2155.172339,
   ** Warning ** SimHVAC: Maximum iterations (20) exceeded for all HVAC loops, at ANNUAL, 01/29 07:00 - 07:15
   **   ~~~   ** The solution for one or more of the Air Loop HVAC systems did not appear to converge
   **   ~~~   ** Air System Named = CENTRAL SYSTEM did not converge for mass flow rate
   **   ~~~   ** Check values should be zero. Most Recent values listed first.
   **   ~~~   ** Demand-to-Supply interface mass flow rate check value iteration history trace: 5.209363E-002,5.209363E-002,5.209363E-002,5.209363E-002,5.209363E-002,5.209363E-002,5.209363E-002,5.209363E-002,5.209363E-002,5.209363E-002,
   **   ~~~   ** Supply-to-demand interface deck 1 mass flow rate check value iteration history trace: 5.209363E-002,5.209363E-002,5.209363E-002,5.209363E-002,5.209363E-002,5.209363E-002,5.209363E-002,5.209363E-002,5.209363E-002,5.209363E-002,
   **   ~~~   ** Air System Named = CENTRAL SYSTEM did not converge for energy
   **   ~~~   ** Check values should be zero. Most Recent values listed first.
   **   ~~~   ** Demand-to-Supply interface energy check value iteration history trace: 1031.525647,1031.525647,1031.525647,1031.525647,1031.525647,1031.525647,1031.525647,1031.525647,1031.525647,1031.525647,
   **   ~~~   ** Supply-to-demand interface deck 1 energy check value iteration history trace: 1780.028571,1780.028571,1780.028571,1780.028571,1780.028571,1780.028571,1780.028571,1780.028570,1780.028570,1780.028570,
   ** Warning ** SimHVAC: Maximum iterations (20) exceeded for all HVAC loops, at ANNUAL, 02/21 06:30 - 06:45
   **   ~~~   ** The solution for one or more of the Air Loop HVAC systems did not appear to converge
   **   ~~~   ** Air System Named = CENTRAL SYSTEM did not converge for mass flow rate
   **   ~~~   ** Check values should be zero. Most Recent values listed first.
   **   ~~~   ** Demand-to-Supply interface mass flow rate check value iteration history trace: 6.264213E-002,6.264213E-002,6.264213E-002,6.264213E-002,6.264213E-002,6.264213E-002,6.264213E-002,6.264213E-002,6.264213E-002,6.264213E-002,
   **   ~~~   ** Supply-to-demand interface deck 1 mass flow rate check value iteration history trace: 6.264213E-002,6.264213E-002,6.264213E-002,6.264213E-002,6.264213E-002,6.264213E-002,6.264213E-002,6.264213E-002,6.264213E-002,6.264213E-002,
   **   ~~~   ** Air System Named = CENTRAL SYSTEM did not converge for energy
   **   ~~~   ** Check values should be zero. Most Recent values listed first.
   **   ~~~   ** Demand-to-Supply interface energy check value iteration history trace: 1235.202476,1235.202476,1235.202476,1235.202476,1235.202476,1235.202476,1235.202476,1235.202476,1235.202476,1235.202476,
   **   ~~~   ** Supply-to-demand interface deck 1 energy check value iteration history trace: 2129.091833,2129.091833,2129.091833,2129.091833,2129.091833,2129.091833,2129.091833,2129.091833,2129.091833,2129.091833,
   ** Warning ** SimHVAC: Maximum iterations (20) exceeded for all HVAC loops, at ANNUAL, 04/04 08:32 - 08:34
   **   ~~~   ** The solution for one or more of the Air Loop HVAC systems did not appear to converge
   **   ~~~   ** Air System Named = CENTRAL SYSTEM did not converge for mass flow rate
   **   ~~~   ** Check values should be zero. Most Recent values listed first.
   **   ~~~   ** Demand-to-Supply interface mass flow rate check value iteration history trace: 0.127703,0.127703,0.127703,0.127703,0.127703,0.127703,0.127703,0.127703,0.127703,0.127703,
   **   ~~~   ** Supply-to-demand interface deck 1 mass flow rate check value iteration history trace: 0.127703,0.127703,0.127703,0.127703,0.127703,0.127703,0.127703,0.127703,0.127703,0.127703,
   **   ~~~   ** Air System Named = CENTRAL SYSTEM did not converge for energy
   **   ~~~   ** Check values should be zero. Most Recent values listed first.
   **   ~~~   ** Demand-to-Supply interface energy check value iteration history trace: 3008.847094,3008.847094,3008.847094,3008.847094,3008.847094,3008.847094,3008.847095,3008.847095,3008.847095,3008.847095,
   **   ~~~   ** Supply-to-demand interface deck 1 energy check value iteration history trace: 1498.802242,1498.802243,1498.802243,1498.802243,1498.802243,1498.802243,1498.802243,1498.802243,1498.802243,1498.802243,
   ** Warning ** SimHVAC: Maximum iterations (20) exceeded for all HVAC loops, at ANNUAL, 04/14 08:09 - 08:11
   **   ~~~   ** The solution for one or more of the Air Loop HVAC systems did not appear to converge
   **   ~~~   ** Air System Named = CENTRAL SYSTEM did not converge for mass flow rate
   **   ~~~   ** Check values should be zero. Most Recent values listed first.
   **   ~~~   ** Demand-to-Supply interface mass flow rate check value iteration history trace: 0.242127,0.242127,0.242127,0.242127,0.242127,0.242127,0.242127,0.242127,0.242127,0.242127,
   **   ~~~   ** Supply-to-demand interface deck 1 mass flow rate check value iteration history trace: 0.242127,0.242127,0.242127,0.242127,0.242127,0.242127,0.242127,0.242127,0.242127,0.242127,
   **   ~~~   ** Air System Named = CENTRAL SYSTEM did not converge for energy
   **   ~~~   ** Check values should be zero. Most Recent values listed first.
   **   ~~~   ** Demand-to-Supply interface energy check value iteration history trace: 5750.292413,5750.292413,5750.292414,5750.292414,5750.292414,5750.292414,5750.292415,5750.292415,5750.292415,5750.292416,
   **   ~~~   ** Supply-to-demand interface deck 1 energy check value iteration history trace: 2541.555624,2541.555624,2541.555624,2541.555624,2541.555624,2541.555624,2541.555624,2541.555625,2541.555625,2541.555625,
   ** Warning ** SimHVAC: Maximum iterations (20) exceeded for all HVAC loops, at ANNUAL, 12/04 05:45 - 05:50
   **   ~~~   ** The solution for one or more of the Air Loop HVAC systems did not appear to converge
   **   ~~~   ** Air System Named = CENTRAL SYSTEM did not converge for mass flow rate
   **   ~~~   ** Check values should be zero. Most Recent values listed first.
   **   ~~~   ** Demand-to-Supply interface mass flow rate check value iteration history trace: 6.174624E-002,6.174624E-002,6.174624E-002,6.174624E-002,6.174624E-002,6.174624E-002,6.174624E-002,6.174624E-002,6.174624E-002,6.174624E-002,
   **   ~~~   ** Supply-to-demand interface deck 1 mass flow rate check value iteration history trace: 6.174624E-002,6.174624E-002,6.174624E-002,6.174624E-002,6.174624E-002,6.174624E-002,6.174624E-002,6.174624E-002,6.174624E-002,6.174624E-002,
   **   ~~~   ** Air System Named = CENTRAL SYSTEM did not converge for energy
   **   ~~~   ** Check values should be zero. Most Recent values listed first.
   **   ~~~   ** Demand-to-Supply interface energy check value iteration history trace: 1218.701644,1218.701644,1218.701644,1218.701644,1218.701644,1218.701644,1218.701644,1218.701644,1218.701644,1218.701644,
   **   ~~~   ** Supply-to-demand interface deck 1 energy check value iteration history trace: 2089.289235,2089.289234,2089.289234,2089.289234,2089.289234,2089.289234,2089.289234,2089.289234,2089.289234,2089.289234,
   ** Warning ** SimHVAC: Maximum iterations (20) exceeded for all HVAC loops, at ANNUAL, 12/05 11:20 - 11:25
   **   ~~~   ** The solution for one or more of the Air Loop HVAC systems did not appear to converge
   **   ~~~   ** Air System Named = CENTRAL SYSTEM did not converge for mass flow rate
   **   ~~~   ** Check values should be zero. Most Recent values listed first.
   **   ~~~   ** Demand-to-Supply interface mass flow rate check value iteration history trace: 2.851747E-002,2.851747E-002,2.851747E-002,2.851747E-002,2.851747E-002,2.851747E-002,2.851747E-002,2.851747E-002,2.851747E-002,2.851747E-002,
   **   ~~~   ** Supply-to-demand interface deck 1 mass flow rate check value iteration history trace: 2.851747E-002,2.851747E-002,2.851747E-002,2.851747E-002,2.851747E-002,2.851747E-002,2.851747E-002,2.851747E-002,2.851747E-002,2.851747E-002,
   **   ~~~   ** Air System Named = CENTRAL SYSTEM did not converge for energy
   **   ~~~   ** Check values should be zero. Most Recent values listed first.
   **   ~~~   ** Demand-to-Supply interface energy check value iteration history trace: 669.707688,669.707688,669.707688,669.707688,669.707688,669.707688,669.707688,669.707688,669.707688,669.707689,
   **   ~~~   ** Supply-to-demand interface deck 1 energy check value iteration history trace: 275.367845,275.367845,275.367845,275.367845,275.367845,275.367845,275.367845,275.367845,275.367845,275.367845,
   ** Warning ** SimHVAC: Maximum iterations (20) exceeded for all HVAC loops, at ANNUAL, 12/07 11:53 - 12:00
   **   ~~~   ** The solution for one or more of the Air Loop HVAC systems did not appear to converge
   **   ~~~   ** Air System Named = CENTRAL SYSTEM did not converge for mass flow rate
   **   ~~~   ** Check values should be zero. Most Recent values listed first.
   **   ~~~   ** Demand-to-Supply interface mass flow rate check value iteration history trace: 0.101011,0.101011,0.101011,0.101011,0.101011,0.101011,0.101011,0.101011,0.101011,0.101011,
   **   ~~~   ** Supply-to-demand interface deck 1 mass flow rate check value iteration history trace: 0.101011,0.101011,0.101011,0.101011,0.101011,0.101011,0.101011,0.101011,0.101011,0.101011,
   **   ~~~   ** Air System Named = CENTRAL SYSTEM did not converge for energy
   **   ~~~   ** Check values should be zero. Most Recent values listed first.
   **   ~~~   ** Demand-to-Supply interface energy check value iteration history trace: 2401.100476,2401.100476,2401.100477,2401.100477,2401.100478,2401.100478,2401.100478,2401.100479,2401.100479,2401.100480,
   **   ~~~   ** Supply-to-demand interface deck 1 energy check value iteration history trace: 1212.476762,1212.476762,1212.476762,1212.476762,1212.476763,1212.476763,1212.476763,1212.476763,1212.476763,1212.476764,
   ** Warning ** SimHVAC: Maximum iterations (20) exceeded for all HVAC loops, at ANNUAL, 12/07 20:30 - 20:45
   **   ~~~   ** The solution for one or more of the Air Loop HVAC systems did not appear to converge
   **   ~~~   ** Air System Named = CENTRAL SYSTEM did not converge for energy
   **   ~~~   ** Check values should be zero. Most Recent values listed first.
   **   ~~~   ** Demand-to-Supply interface energy check value iteration history trace: 85.226800,85.226800,85.226800,85.226800,85.226800,85.226800,85.226800,85.226800,85.226800,85.226800,
   **   ~~~   ** Supply-to-demand interface deck 1 energy check value iteration history trace: 40.683904,40.683904,40.683904,40.683904,40.683904,40.683904,40.683904,40.683904,40.683904,40.683904,
   ** Warning ** SimHVAC: Maximum iterations (20) exceeded for all HVAC loops, at ANNUAL, 12/13 09:05 - 09:08
   **   ~~~   ** The solution for one or more of the Air Loop HVAC systems did not appear to converge
   **   ~~~   ** Air System Named = CENTRAL SYSTEM did not converge for mass flow rate
   **   ~~~   ** Check values should be zero. Most Recent values listed first.
   **   ~~~   ** Demand-to-Supply interface mass flow rate check value iteration history trace: 1.376642E-002,1.376642E-002,1.376642E-002,1.376642E-002,1.376642E-002,1.376642E-002,1.376642E-002,1.376642E-002,1.376642E-002,1.376642E-002,
   **   ~~~   ** Supply-to-demand interface deck 1 mass flow rate check value iteration history trace: 1.376642E-002,1.376642E-002,1.376642E-002,1.376642E-002,1.376642E-002,1.376642E-002,1.376642E-002,1.376642E-002,1.376642E-002,1.376642E-002,
   **   ~~~   ** Air System Named = CENTRAL SYSTEM did not converge for energy
   **   ~~~   ** Check values should be zero. Most Recent values listed first.
   **   ~~~   ** Demand-to-Supply interface energy check value iteration history trace: 322.521940,322.521940,322.521940,322.521940,322.521940,322.521940,322.521940,322.521940,322.521940,322.521940,
   **   ~~~   ** Supply-to-demand interface deck 1 energy check value iteration history trace: 173.784135,173.784135,173.784135,173.784136,173.784136,173.784136,173.784136,173.784136,173.784136,173.784136,
   ** Warning ** SimHVAC: Maximum iterations (20) exceeded for all HVAC loops, at ANNUAL, 12/27 09:15 - 09:30
   **   ~~~   ** The solution for one or more of the Air Loop HVAC systems did not appear to converge
   **   ~~~   ** Air System Named = CENTRAL SYSTEM did not converge for mass flow rate
   **   ~~~   ** Check values should be zero. Most Recent values listed first.
   **   ~~~   ** Demand-to-Supply interface mass flow rate check value iteration history trace: 6.309518E-002,6.309518E-002,6.309518E-002,6.309518E-002,6.309518E-002,6.309518E-002,6.309518E-002,6.309518E-002,6.309518E-002,6.309518E-002,
   **   ~~~   ** Supply-to-demand interface deck 1 mass flow rate check value iteration history trace: 6.309518E-002,6.309518E-002,6.309518E-002,6.309518E-002,6.309518E-002,6.309518E-002,6.309518E-002,6.309518E-002,6.309518E-002,6.309518E-002,
   **   ~~~   ** Air System Named = CENTRAL SYSTEM did not converge for energy
   **   ~~~   ** Check values should be zero. Most Recent values listed first.
   **   ~~~   ** Demand-to-Supply interface energy check value iteration history trace: 1250.190065,1250.190065,1250.190065,1250.190065,1250.190064,1250.190064,1250.190064,1250.190064,1250.190064,1250.190064,
   **   ~~~   ** Supply-to-demand interface deck 1 energy check value iteration history trace: 2191.458598,2191.458598,2191.458598,2191.458598,2191.458598,2191.458598,2191.458597,2191.458597,2191.458597,2191.458597,
   ************* Simulation Error Summary *************
   ** Warning ** The following Report Variables were requested but not generated -- check.rdd file
   **   ~~~   ** Either the IDF did not contain these elements, the variable name is misspelled,
   **   ~~~   ** or the requested variable is an advanced output which requires Output : Diagnostics, DisplayAdvancedReportVariables;
   ************* Key=*, VarName=BASEBOARD TOTAL HEATING ENERGY, Frequency=
   ************* Key=*, VarName=WATER HEATER NATURALGAS ENERGY, Frequency=
   ************* Key=*, VarName=COOLING COIL TOTAL HEATING ENERGY, Frequency=
   ************* There are 34 unused schedules in input.
   ************* There are 388 unused week schedules in input.
   ************* There are 396 unused day schedules in input.
   ************* Use Output:Diagnostics,DisplayUnusedSchedules; to see them.
   *************
   ************* ===== Recurring Error Summary =====
   ************* The following recurring error messages occurred.
   *************
   *************  ** Warning ** "TOTAL HOT WATER LOAD" - Target water temperature should be less than or equal to the hot water temperature error continues...
   *************  **   ~~~   **   This error occurred 67449 total times;
   *************  **   ~~~   **   during Warmup 0 times;
   *************  **   ~~~   **   during Sizing 0 times.
   *************  **   ~~~   **   Max=6.378224  Min=2.033643E-004
   *************
   *************
   ************* ===== Final Error Summary =====
   ************* The following error categories occurred.  Consider correcting or noting.
   ************* Nominally Unused Constructions
   ************* ..The nominally unused constructions warning is provided to alert you to potential conditions that can cause
   ************* ..extra time during simulation. Each construction is calculated by the algorithm indicated in the HeatBalanceAlgorithm
   ************* ..object. You may remove the constructions indicated (when you use the DisplayExtraWarnings option).
   *************
   ************* EnergyPlus Warmup Error Summary. During Warmup: 1 Warning; 0 Severe Errors.
   ************* EnergyPlus Sizing Error Summary. During Sizing: 4 Warning; 0 Severe Errors.
   ************* EnergyPlus Completed Successfully-- 67478 Warning; 0 Severe Errors; Elapsed Time=00hr 01min 34.63sec
