Program Version,EnergyPlus, Version 22.2.0-c249759bad, YMD=2023.09.01 14:43,
   ************* Beginning Zone Sizing Calculations
   ** Warning ** ProcessScheduleInput: Schedule:Constant="ALWAYS ON DISCRETE", Schedule Type Limits Name="ONOFF" not found -- will not be validated
   ** Warning ** Foundation:Kiva="KIVA FOUNDATION", no Interior Horizontal Insulation Material Name defined
   **   ~~~   ** Interior Horizontal Insulation Depth will not be used.
   ** Warning ** CheckUsedConstructions: There are 15 nominally unused constructions in input.
   **   ~~~   ** Each Unused construction is shown.
   ************* Construction=INTERIOR FLOOR
   ************* Construction=INTERIOR WINDOW
   ************* Construction=EXTERIOR DOOR
   ************* Construction=INTERIOR DOOR
   ************* Construction=GABLE CONSTRUCTION
   ************* Construction=CRAWL_FLOOR
   ************* Construction=INSULATED PIPE
   ************* Construction=PLAIN PIPE
   ************* Construction=TDD PIPE
   ************* Construction=TDD DOME
   ************* Construction=TDD DIFFUSER
   ************* Construction=CRAWL WALL
   ************* Construction=CEILING-FLOOR-LAYER
   ************* Construction=SLAB CONSTRUCTION W FULL R10 INSULATION
   ************* Construction=SLAB CONSTRUCTION W FULL R5 INSULATION
   ** Warning ** GetDXCoils: Coil:Heating:DX:SingleSpeed="DX_HEATING_COIL" curve values
   **   ~~~   ** ... Defrost Energy Input Ratio Function of Temperature Curve Name = DEFROSTEIR output is not equal to 1.0 (+ or - 10%) at rated conditions.
   **   ~~~   ** ... Curve output at rated conditions = 0.152
   ************* Beginning System Sizing Calculations
   ************* Beginning Plant Sizing Calculations
   ** Warning ** SizeDXCoil Coil:Cooling:DX:SingleSpeed DX_COOLING_COIL
   **   ~~~   ** ...Gross Rated Total Cooling Capacity [W] will be limited by the maximum rated volume flow per rated total capacity ratio.
   **   ~~~   ** ...DX coil volume flow rate ( m3/s ) = 0.518297
   **   ~~~   ** ...Requested capacity ( W ) = 5738.172
   **   ~~~   ** ...Requested flow/capacity ratio ( m3/s/W ) = 9.032E-005
   **   ~~~   ** ...Maximum flow/capacity ratio ( m3/s/W ) = 6.041E-005
   **   ~~~   ** ...Adjusted capacity ( W ) = 8579.671
   ** Warning ** Coil:WaterHeating:AirToWaterHeatPump:Wrapped "HEAT PUMP WATER HEATER EVAPORATOR": Rated air volume flow rate per watt of rated total water heating capacity is out of range
   **   ~~~   ** Min Rated Vol Flow Per Watt=[4.027E-005], Rated Vol Flow Per Watt=[1.386E-004], Max Rated Vol Flow Per Watt=[8.056E-005]. See Input-Output Reference Manual for valid range.
   ** Warning ** Water heater = WATER HEATER TANK:  Recovery Efficiency and Energy Factor could not be calculated during the test for standard ratings
   **   ~~~   ** Setpoint was never recovered and/or heater never turned on
   ** Warning ** Check input. Pump nominal power or motor efficiency is set to 0, for pump=MAINS PRESSURE
   ** Warning ** Output:Meter: invalid Key Name="ELECTRIC_RANGE:INTERIOREQUIPMENT:ELECTRICITY" - not found.
   ** Warning ** Output:Meter: invalid Key Name="ELECTRIC_DRYER:INTERIOREQUIPMENT:ELECTRICITY" - not found.
   ** Warning ** Output:Meter: invalid Key Name="HEATRECOVERY:ELECTRICITY" - not found.
   ** Warning ** Output:Meter: invalid Key Name="HEATING:NATURALGAS" - not found.
   ** Warning ** Output:Meter: invalid Key Name="WATERSYSTEMS:NATURALGAS" - not found.
   ** Warning ** Output:Meter: invalid Key Name="PROPANE:FACILITY" - not found.
   ** Warning ** Output:Meter: invalid Key Name="HEATING:PROPANE" - not found.
   ************* Testing Individual Branch Integrity
   ************* All Branches passed integrity testing
   ************* Testing Individual Supply Air Path Integrity
   ************* All Supply Air Paths passed integrity testing
   ************* Testing Individual Return Air Path Integrity
   ************* All Return Air Paths passed integrity testing
   ************* No node connection errors were found.
   ************* Beginning Simulation
   ** Warning ** AirflowNetwork::Solver::validate_distribution: Heat pump water heater is simulated along with an AirflowNetwork but is not included in the AirflowNetwork.
   ** Warning ** CalcEquipmentFlowRates: "TOTAL HOT WATER LOAD" - Target water temperature is greater than the hot water temperature by (1.62 C)
   **   ~~~   **  Environment=EXTREME_WINTER, at Simulation time=12/22 06:00 - 06:15
   **   ~~~   ** ...target water temperature     = 53.33 C
   **   ~~~   ** ...hot water temperature        = 51.71 C
   **   ~~~   ** ...Target water temperature should be less than or equal to the hot water temperature. Verify temperature setpoints and schedules.
   ** Warning ** SimHVAC: Maximum iterations (20) exceeded for all HVAC loops, at ANNUAL, 02/21 19:53 - 20:00
   **   ~~~   ** The solution for one or more of the Air Loop HVAC systems did not appear to converge
   **   ~~~   ** Air System Named = CENTRAL SYSTEM did not converge for mass flow rate
   **   ~~~   ** Check values should be zero. Most Recent values listed first.
   **   ~~~   ** Demand-to-Supply interface mass flow rate check value iteration history trace: 9.373769E-002,9.373769E-002,9.373769E-002,9.373769E-002,9.373769E-002,9.373769E-002,9.373769E-002,9.373769E-002,9.373769E-002,9.373769E-002,
   **   ~~~   ** Supply-to-demand interface deck 1 mass flow rate check value iteration history trace: 9.373769E-002,9.373769E-002,9.373769E-002,9.373769E-002,9.373769E-002,9.373769E-002,9.373769E-002,9.373769E-002,9.373769E-002,9.373769E-002,
   **   ~~~   ** Air System Named = CENTRAL SYSTEM did not converge for energy
   **   ~~~   ** Check values should be zero. Most Recent values listed first.
   **   ~~~   ** Demand-to-Supply interface energy check value iteration history trace: 1855.184645,1855.184645,1855.184645,1855.184645,1855.184645,1855.184644,1855.184644,1855.184644,1855.184644,1855.184644,
   **   ~~~   ** Supply-to-demand interface deck 1 energy check value iteration history trace: 2987.925024,2987.925024,2987.925024,2987.925023,2987.925023,2987.925023,2987.925023,2987.925023,2987.925023,2987.925022,
   ** Warning ** SimHVAC: Maximum iterations (20) exceeded for all HVAC loops, at ANNUAL, 02/25 11:15 - 11:19
   **   ~~~   ** The solution for one or more of the Air Loop HVAC systems did not appear to converge
   **   ~~~   ** Air System Named = CENTRAL SYSTEM did not converge for mass flow rate
   **   ~~~   ** Check values should be zero. Most Recent values listed first.
   **   ~~~   ** Demand-to-Supply interface mass flow rate check value iteration history trace: 6.652877E-002,6.652877E-002,6.652877E-002,6.652877E-002,6.652877E-002,6.652877E-002,6.652877E-002,6.652877E-002,6.652877E-002,6.652877E-002,
   **   ~~~   ** Supply-to-demand interface deck 1 mass flow rate check value iteration history trace: 6.652877E-002,6.652877E-002,6.652877E-002,6.652877E-002,6.652877E-002,6.652877E-002,6.652877E-002,6.652877E-002,6.652877E-002,6.652877E-002,
   **   ~~~   ** Air System Named = CENTRAL SYSTEM did not converge for energy
   **   ~~~   ** Check values should be zero. Most Recent values listed first.
   **   ~~~   ** Demand-to-Supply interface energy check value iteration history trace: 1318.399037,1318.399037,1318.399037,1318.399037,1318.399037,1318.399037,1318.399037,1318.399037,1318.399037,1318.399037,
   **   ~~~   ** Supply-to-demand interface deck 1 energy check value iteration history trace: 2207.820849,2207.820849,2207.820849,2207.820849,2207.820849,2207.820848,2207.820848,2207.820848,2207.820848,2207.820848,
   ** Warning ** SimHVAC: Maximum iterations (20) exceeded for all HVAC loops, at ANNUAL, 02/28 20:00 - 20:15
   **   ~~~   ** The solution for one or more of the Air Loop HVAC systems did not appear to converge
   **   ~~~   ** Air System Named = CENTRAL SYSTEM did not converge for mass flow rate
   **   ~~~   ** Check values should be zero. Most Recent values listed first.
   **   ~~~   ** Demand-to-Supply interface mass flow rate check value iteration history trace: 8.724854E-002,8.724854E-002,8.724854E-002,8.724854E-002,8.724854E-002,8.724854E-002,8.724854E-002,8.724854E-002,8.724854E-002,8.724854E-002,
   **   ~~~   ** Supply-to-demand interface deck 1 mass flow rate check value iteration history trace: 8.724854E-002,8.724854E-002,8.724854E-002,8.724854E-002,8.724854E-002,8.724854E-002,8.724854E-002,8.724854E-002,8.724854E-002,8.724854E-002,
   **   ~~~   ** Air System Named = CENTRAL SYSTEM did not converge for energy
   **   ~~~   ** Check values should be zero. Most Recent values listed first.
   **   ~~~   ** Demand-to-Supply interface energy check value iteration history trace: 1696.817551,1696.817551,1696.817551,1696.817550,1696.817550,1696.817550,1696.817550,1696.817550,1696.817550,1696.817550,
   **   ~~~   ** Supply-to-demand interface deck 1 energy check value iteration history trace: 2766.443469,2766.443469,2766.443469,2766.443468,2766.443468,2766.443468,2766.443468,2766.443468,2766.443468,2766.443468,
   ** Warning ** SimHVAC: Maximum iterations (20) exceeded for all HVAC loops, at ANNUAL, 03/06 18:28 - 18:30
   **   ~~~   ** The solution for one or more of the Air Loop HVAC systems did not appear to converge
   **   ~~~   ** Air System Named = CENTRAL SYSTEM did not converge for mass flow rate
   **   ~~~   ** Check values should be zero. Most Recent values listed first.
   **   ~~~   ** Demand-to-Supply interface mass flow rate check value iteration history trace: 7.821495E-002,7.821495E-002,7.821495E-002,7.821495E-002,7.821495E-002,7.821495E-002,7.821495E-002,7.821495E-002,7.821495E-002,7.821495E-002,
   **   ~~~   ** Supply-to-demand interface deck 1 mass flow rate check value iteration history trace: 7.821495E-002,7.821495E-002,7.821495E-002,7.821495E-002,7.821495E-002,7.821495E-002,7.821495E-002,7.821495E-002,7.821495E-002,7.821495E-002,
   **   ~~~   ** Air System Named = CENTRAL SYSTEM did not converge for energy
   **   ~~~   ** Check values should be zero. Most Recent values listed first.
   **   ~~~   ** Demand-to-Supply interface energy check value iteration history trace: 1546.587077,1546.587077,1546.587077,1546.587077,1546.587077,1546.587077,1546.587077,1546.587077,1546.587077,1546.587077,
   **   ~~~   ** Supply-to-demand interface deck 1 energy check value iteration history trace: 2503.111344,2503.111344,2503.111344,2503.111344,2503.111344,2503.111343,2503.111343,2503.111343,2503.111343,2503.111343,
   ** Warning ** SimHVAC: Maximum iterations (20) exceeded for all HVAC loops, at ANNUAL, 03/11 10:47 - 10:49
   **   ~~~   ** The solution for one or more of the Air Loop HVAC systems did not appear to converge
   **   ~~~   ** Air System Named = CENTRAL SYSTEM did not converge for mass flow rate
   **   ~~~   ** Check values should be zero. Most Recent values listed first.
   **   ~~~   ** Demand-to-Supply interface mass flow rate check value iteration history trace: 6.982558E-002,6.982558E-002,6.982558E-002,6.982558E-002,6.982558E-002,6.982558E-002,6.982558E-002,6.982558E-002,6.982558E-002,6.982558E-002,
   **   ~~~   ** Supply-to-demand interface deck 1 mass flow rate check value iteration history trace: 6.982558E-002,6.982558E-002,6.982558E-002,6.982558E-002,6.982558E-002,6.982558E-002,6.982558E-002,6.982558E-002,6.982558E-002,6.982558E-002,
   **   ~~~   ** Air System Named = CENTRAL SYSTEM did not converge for energy
   **   ~~~   ** Check values should be zero. Most Recent values listed first.
   **   ~~~   ** Demand-to-Supply interface energy check value iteration history trace: 1383.800276,1383.800276,1383.800276,1383.800276,1383.800275,1383.800275,1383.800275,1383.800275,1383.800275,1383.800275,
   **   ~~~   ** Supply-to-demand interface deck 1 energy check value iteration history trace: 2371.088906,2371.088906,2371.088906,2371.088906,2371.088906,2371.088905,2371.088905,2371.088905,2371.088905,2371.088905,
   ** Warning ** SimHVAC: Maximum iterations (20) exceeded for all HVAC loops, at ANNUAL, 03/12 18:15 - 18:22
   **   ~~~   ** The solution for one or more of the Air Loop HVAC systems did not appear to converge
   **   ~~~   ** Air System Named = CENTRAL SYSTEM did not converge for mass flow rate
   **   ~~~   ** Check values should be zero. Most Recent values listed first.
   **   ~~~   ** Demand-to-Supply interface mass flow rate check value iteration history trace: 6.116919E-002,6.116919E-002,6.116919E-002,6.116919E-002,6.116919E-002,6.116919E-002,6.116919E-002,6.116919E-002,6.116919E-002,6.116919E-002,
   **   ~~~   ** Supply-to-demand interface deck 1 mass flow rate check value iteration history trace: 6.116919E-002,6.116919E-002,6.116919E-002,6.116919E-002,6.116919E-002,6.116919E-002,6.116919E-002,6.116919E-002,6.116919E-002,6.116919E-002,
   **   ~~~   ** Air System Named = CENTRAL SYSTEM did not converge for energy
   **   ~~~   ** Check values should be zero. Most Recent values listed first.
   **   ~~~   ** Demand-to-Supply interface energy check value iteration history trace: 1203.240647,1203.240646,1203.240646,1203.240646,1203.240646,1203.240646,1203.240646,1203.240646,1203.240646,1203.240646,
   **   ~~~   ** Supply-to-demand interface deck 1 energy check value iteration history trace: 2272.807002,2272.807001,2272.807001,2272.807001,2272.807001,2272.807001,2272.807001,2272.807001,2272.807001,2272.807001,
   ** Warning ** SimHVAC: Maximum iterations (20) exceeded for all HVAC loops, at ANNUAL, 03/22 15:10 - 15:15
   **   ~~~   ** The solution for one or more of the Air Loop HVAC systems did not appear to converge
   **   ~~~   ** Air System Named = CENTRAL SYSTEM did not converge for mass flow rate
   **   ~~~   ** Check values should be zero. Most Recent values listed first.
   **   ~~~   ** Demand-to-Supply interface mass flow rate check value iteration history trace: 5.242761E-002,5.242761E-002,5.242761E-002,5.242761E-002,5.242761E-002,5.242761E-002,5.242761E-002,5.242761E-002,5.242761E-002,5.242761E-002,
   **   ~~~   ** Supply-to-demand interface deck 1 mass flow rate check value iteration history trace: 5.242761E-002,5.242761E-002,5.242761E-002,5.242761E-002,5.242761E-002,5.242761E-002,5.242761E-002,5.242761E-002,5.242761E-002,5.242761E-002,
   **   ~~~   ** Air System Named = CENTRAL SYSTEM did not converge for energy
   **   ~~~   ** Check values should be zero. Most Recent values listed first.
   **   ~~~   ** Demand-to-Supply interface energy check value iteration history trace: 1034.763754,1034.763754,1034.763754,1034.763754,1034.763754,1034.763754,1034.763754,1034.763754,1034.763754,1034.763754,
   **   ~~~   ** Supply-to-demand interface deck 1 energy check value iteration history trace: 2098.548928,2098.548928,2098.548928,2098.548928,2098.548928,2098.548928,2098.548928,2098.548928,2098.548928,2098.548928,
   ** Warning ** Temperature out of range [-100. to 200.] (PsyPsatFnTemp)
   **   ~~~   **  Routine=PsyTwbFnTdbWPb, Environment=ANNUAL, at Simulation time=03/27 16:45 - 17:00
   **   ~~~   **  Input Temperature=-153.61
   ** Warning ** SimHVAC: Maximum iterations (20) exceeded for all HVAC loops, at ANNUAL, 04/02 18:08 - 18:15
   **   ~~~   ** The solution for one or more of the Air Loop HVAC systems did not appear to converge
   **   ~~~   ** Air System Named = CENTRAL SYSTEM did not converge for mass flow rate
   **   ~~~   ** Check values should be zero. Most Recent values listed first.
   **   ~~~   ** Demand-to-Supply interface mass flow rate check value iteration history trace: 8.454406E-002,8.454406E-002,8.454406E-002,8.454406E-002,8.454406E-002,8.454406E-002,8.454406E-002,8.454406E-002,8.454406E-002,8.454406E-002,
   **   ~~~   ** Supply-to-demand interface deck 1 mass flow rate check value iteration history trace: 8.454406E-002,8.454406E-002,8.454406E-002,8.454406E-002,8.454406E-002,8.454406E-002,8.454406E-002,8.454406E-002,8.454406E-002,8.454406E-002,
   **   ~~~   ** Air System Named = CENTRAL SYSTEM did not converge for energy
   **   ~~~   ** Check values should be zero. Most Recent values listed first.
   **   ~~~   ** Demand-to-Supply interface energy check value iteration history trace: 1673.982053,1673.982053,1673.982053,1673.982053,1673.982053,1673.982053,1673.982053,1673.982053,1673.982053,1673.982052,
   **   ~~~   ** Supply-to-demand interface deck 1 energy check value iteration history trace: 2737.707844,2737.707843,2737.707843,2737.707843,2737.707843,2737.707843,2737.707843,2737.707843,2737.707843,2737.707842,
   ** Warning ** SimHVAC: Maximum iterations (20) exceeded for all HVAC loops, at ANNUAL, 04/24 08:45 - 09:00
   **   ~~~   ** The solution for one or more of the Air Loop HVAC systems did not appear to converge
   **   ~~~   ** Air System Named = CENTRAL SYSTEM did not converge for mass flow rate
   **   ~~~   ** Check values should be zero. Most Recent values listed first.
   **   ~~~   ** Demand-to-Supply interface mass flow rate check value iteration history trace: 3.011103E-002,3.011103E-002,3.011103E-002,3.011103E-002,3.011103E-002,3.011103E-002,3.011103E-002,3.011103E-002,3.011103E-002,3.011103E-002,
   **   ~~~   ** Supply-to-demand interface deck 1 mass flow rate check value iteration history trace: 3.011103E-002,3.011103E-002,3.011103E-002,3.011103E-002,3.011103E-002,3.011103E-002,3.011103E-002,3.011103E-002,3.011103E-002,3.011103E-002,
   **   ~~~   ** Air System Named = CENTRAL SYSTEM did not converge for energy
   **   ~~~   ** Check values should be zero. Most Recent values listed first.
   **   ~~~   ** Demand-to-Supply interface energy check value iteration history trace: 596.723175,596.723175,596.723175,596.723175,596.723175,596.723175,596.723175,596.723175,596.723175,596.723175,
   **   ~~~   ** Supply-to-demand interface deck 1 energy check value iteration history trace: 1041.149978,1041.149978,1041.149977,1041.149977,1041.149977,1041.149977,1041.149977,1041.149977,1041.149977,1041.149977,
   ** Warning ** SimHVAC: Maximum iterations (20) exceeded for all HVAC loops, at ANNUAL, 04/28 15:15 - 15:30
   **   ~~~   ** The solution for one or more of the Air Loop HVAC systems did not appear to converge
   **   ~~~   ** Air System Named = CENTRAL SYSTEM did not converge for mass flow rate
   **   ~~~   ** Check values should be zero. Most Recent values listed first.
   **   ~~~   ** Demand-to-Supply interface mass flow rate check value iteration history trace: 7.389399E-002,7.389399E-002,7.389399E-002,7.389399E-002,7.389399E-002,7.389399E-002,7.389399E-002,7.389399E-002,7.389399E-002,7.389399E-002,
   **   ~~~   ** Supply-to-demand interface deck 1 mass flow rate check value iteration history trace: 7.389399E-002,7.389399E-002,7.389399E-002,7.389399E-002,7.389399E-002,7.389399E-002,7.389399E-002,7.389399E-002,7.389399E-002,7.389399E-002,
   **   ~~~   ** Air System Named = CENTRAL SYSTEM did not converge for energy
   **   ~~~   ** Check values should be zero. Most Recent values listed first.
   **   ~~~   ** Demand-to-Supply interface energy check value iteration history trace: 1481.284170,1481.284170,1481.284170,1481.284170,1481.284170,1481.284170,1481.284170,1481.284170,1481.284170,1481.284169,
   **   ~~~   ** Supply-to-demand interface deck 1 energy check value iteration history trace: 2483.597439,2483.597439,2483.597439,2483.597439,2483.597439,2483.597439,2483.597439,2483.597439,2483.597438,2483.597438,
   ** Warning ** SimHVAC: Maximum iterations (20) exceeded for all HVAC loops, at ANNUAL, 04/30 12:45 - 13:00
   **   ~~~   ** The solution for one or more of the Air Loop HVAC systems did not appear to converge
   **   ~~~   ** Air System Named = CENTRAL SYSTEM did not converge for mass flow rate
   **   ~~~   ** Check values should be zero. Most Recent values listed first.
   **   ~~~   ** Demand-to-Supply interface mass flow rate check value iteration history trace: 5.739294E-002,5.739294E-002,5.739294E-002,5.739294E-002,5.739294E-002,5.739294E-002,5.739294E-002,5.739294E-002,5.739294E-002,5.739294E-002,
   **   ~~~   ** Supply-to-demand interface deck 1 mass flow rate check value iteration history trace: 5.739294E-002,5.739294E-002,5.739294E-002,5.739294E-002,5.739294E-002,5.739294E-002,5.739294E-002,5.739294E-002,5.739294E-002,5.739294E-002,
   **   ~~~   ** Air System Named = CENTRAL SYSTEM did not converge for energy
   **   ~~~   ** Check values should be zero. Most Recent values listed first.
   **   ~~~   ** Demand-to-Supply interface energy check value iteration history trace: 1122.529429,1122.529429,1122.529429,1122.529429,1122.529429,1122.529429,1122.529429,1122.529429,1122.529429,1122.529429,
   **   ~~~   ** Supply-to-demand interface deck 1 energy check value iteration history trace: 1956.698041,1956.698041,1956.698041,1956.698041,1956.698041,1956.698041,1956.698041,1956.698041,1956.698040,1956.698040,
   ** Warning ** SimHVAC: Maximum iterations (20) exceeded for all HVAC loops, at ANNUAL, 05/07 08:42 - 08:45
   **   ~~~   ** The solution for one or more of the Air Loop HVAC systems did not appear to converge
   **   ~~~   ** Air System Named = CENTRAL SYSTEM did not converge for mass flow rate
   **   ~~~   ** Check values should be zero. Most Recent values listed first.
   **   ~~~   ** Demand-to-Supply interface mass flow rate check value iteration history trace: 5.886785E-002,5.886785E-002,5.886785E-002,5.886785E-002,5.886785E-002,5.886785E-002,5.886785E-002,5.886785E-002,5.886785E-002,5.886785E-002,
   **   ~~~   ** Supply-to-demand interface deck 1 mass flow rate check value iteration history trace: 5.886785E-002,5.886785E-002,5.886785E-002,5.886785E-002,5.886785E-002,5.886785E-002,5.886785E-002,5.886785E-002,5.886785E-002,5.886785E-002,
   **   ~~~   ** Air System Named = CENTRAL SYSTEM did not converge for energy
   **   ~~~   ** Check values should be zero. Most Recent values listed first.
   **   ~~~   ** Demand-to-Supply interface energy check value iteration history trace: 1163.442180,1163.442180,1163.442179,1163.442179,1163.442179,1163.442179,1163.442179,1163.442179,1163.442179,1163.442179,
   **   ~~~   ** Supply-to-demand interface deck 1 energy check value iteration history trace: 2333.013514,2333.013514,2333.013514,2333.013514,2333.013514,2333.013514,2333.013514,2333.013514,2333.013513,2333.013513,
   ** Warning ** SimHVAC: Maximum iterations (20) exceeded for all HVAC loops, at ANNUAL, 06/02 06:38 - 06:40
   **   ~~~   ** The solution for one or more of the Air Loop HVAC systems did not appear to converge
   **   ~~~   ** Air System Named = CENTRAL SYSTEM did not converge for mass flow rate
   **   ~~~   ** Check values should be zero. Most Recent values listed first.
   **   ~~~   ** Demand-to-Supply interface mass flow rate check value iteration history trace: 5.738795E-002,5.738795E-002,5.738795E-002,5.738795E-002,5.738795E-002,5.738795E-002,5.738795E-002,5.738795E-002,5.738795E-002,5.738795E-002,
   **   ~~~   ** Supply-to-demand interface deck 1 mass flow rate check value iteration history trace: 5.738795E-002,5.738795E-002,5.738795E-002,5.738795E-002,5.738795E-002,5.738795E-002,5.738795E-002,5.738795E-002,5.738795E-002,5.738795E-002,
   **   ~~~   ** Air System Named = CENTRAL SYSTEM did not converge for energy
   **   ~~~   ** Check values should be zero. Most Recent values listed first.
   **   ~~~   ** Demand-to-Supply interface energy check value iteration history trace: 1128.283547,1128.283547,1128.283547,1128.283547,1128.283547,1128.283547,1128.283547,1128.283547,1128.283547,1128.283547,
   **   ~~~   ** Supply-to-demand interface deck 1 energy check value iteration history trace: 2197.430488,2197.430488,2197.430488,2197.430488,2197.430488,2197.430488,2197.430488,2197.430488,2197.430488,2197.430488,
   ** Warning ** SimHVAC: Maximum iterations (20) exceeded for all HVAC loops, at ANNUAL, 06/07 16:08 - 16:15
   **   ~~~   ** The solution for one or more of the Air Loop HVAC systems did not appear to converge
   **   ~~~   ** Air System Named = CENTRAL SYSTEM did not converge for mass flow rate
   **   ~~~   ** Check values should be zero. Most Recent values listed first.
   **   ~~~   ** Demand-to-Supply interface mass flow rate check value iteration history trace: 6.014635E-002,6.014635E-002,6.014635E-002,6.014635E-002,6.014635E-002,6.014635E-002,6.014635E-002,6.014635E-002,6.014635E-002,6.014635E-002,
   **   ~~~   ** Supply-to-demand interface deck 1 mass flow rate check value iteration history trace: 6.014635E-002,6.014635E-002,6.014635E-002,6.014635E-002,6.014635E-002,6.014635E-002,6.014635E-002,6.014635E-002,6.014635E-002,6.014635E-002,
   **   ~~~   ** Air System Named = CENTRAL SYSTEM did not converge for energy
   **   ~~~   ** Check values should be zero. Most Recent values listed first.
   **   ~~~   ** Demand-to-Supply interface energy check value iteration history trace: 1176.784156,1176.784156,1176.784156,1176.784156,1176.784156,1176.784156,1176.784156,1176.784155,1176.784155,1176.784155,
   **   ~~~   ** Supply-to-demand interface deck 1 energy check value iteration history trace: 2219.306985,2219.306985,2219.306985,2219.306985,2219.306985,2219.306985,2219.306985,2219.306985,2219.306985,2219.306985,
   ************* Simulation Error Summary *************
   ** Warning ** The following Report Variables were requested but not generated -- check.rdd file
   **   ~~~   ** Either the IDF did not contain these elements, the variable name is misspelled,
   **   ~~~   ** or the requested variable is an advanced output which requires Output : Diagnostics, DisplayAdvancedReportVariables;
   ************* Key=*, VarName=BASEBOARD TOTAL HEATING ENERGY, Frequency=
   ************* Key=*, VarName=WATER HEATER NATURALGAS ENERGY, Frequency=
   ************* Key=*, VarName=COOLING COIL TOTAL HEATING ENERGY, Frequency=
   ************* There are 34 unused schedules in input.
   ************* There are 388 unused week schedules in input.
   ************* There are 396 unused day schedules in input.
   ************* Use Output:Diagnostics,DisplayUnusedSchedules; to see them.
   *************
   ************* ===== Recurring Error Summary =====
   ************* The following recurring error messages occurred.
   *************
   *************  ** Warning ** "TOTAL HOT WATER LOAD" - Target water temperature should be less than or equal to the hot water temperature error continues...
   *************  **   ~~~   **   This error occurred 147181 total times;
   *************  **   ~~~   **   during Warmup 0 times;
   *************  **   ~~~   **   during Sizing 0 times.
   *************  **   ~~~   **   Max=12.193958  Min=2.144879E-004
   *************
   *************  ** Warning ** Temperature out of range [-100. to 200.] (PsyPsatFnTemp)
   *************  **   ~~~   **   This error occurred 75 total times;
   *************  **   ~~~   **   during Warmup 0 times;
   *************  **   ~~~   **   during Sizing 0 times.
   *************  **   ~~~   **   Max=-107.387661 C  Min=-2709.09082 C
   *************
   *************  ** Warning ** SimHVAC: Exceeding Maximum iterations for all HVAC loops, during ANNUAL continues
   *************  **   ~~~   **   This error occurred 15 total times;
   *************  **   ~~~   **   during Warmup 0 times;
   *************  **   ~~~   **   during Sizing 0 times.
   *************
   *************
   ************* ===== Final Error Summary =====
   ************* The following error categories occurred.  Consider correcting or noting.
   ************* Nominally Unused Constructions
   ************* ..The nominally unused constructions warning is provided to alert you to potential conditions that can cause
   ************* ..extra time during simulation. Each construction is calculated by the algorithm indicated in the HeatBalanceAlgorithm
   ************* ..object. You may remove the constructions indicated (when you use the DisplayExtraWarnings option).
   *************
   ************* EnergyPlus Warmup Error Summary. During Warmup: 1 Warning; 0 Severe Errors.
   ************* EnergyPlus Sizing Error Summary. During Sizing: 4 Warning; 0 Severe Errors.
   ************* EnergyPlus Completed Successfully-- 147303 Warning; 0 Severe Errors; Elapsed Time=00hr 06min 23.54sec
