Program Version,EnergyPlus, Version 22.2.0-c249759bad, YMD=2023.08.31 13:10,
   ************* Beginning Zone Sizing Calculations
   ** Warning ** ProcessScheduleInput: Schedule:Constant="ALWAYS ON DISCRETE", Schedule Type Limits Name="ONOFF" not found -- will not be validated
   ** Warning ** Foundation:Kiva="KIVA FOUNDATION", no Interior Horizontal Insulation Material Name defined
   **   ~~~   ** Interior Horizontal Insulation Depth will not be used.
   ** Warning ** CheckUsedConstructions: There are 15 nominally unused constructions in input.
   **   ~~~   ** Each Unused construction is shown.
   ************* Construction=INTERIOR FLOOR
   ************* Construction=INTERIOR WINDOW
   ************* Construction=EXTERIOR DOOR
   ************* Construction=INTERIOR DOOR
   ************* Construction=GABLE CONSTRUCTION
   ************* Construction=CRAWL_FLOOR
   ************* Construction=INSULATED PIPE
   ************* Construction=PLAIN PIPE
   ************* Construction=TDD PIPE
   ************* Construction=TDD DOME
   ************* Construction=TDD DIFFUSER
   ************* Construction=CRAWL WALL
   ************* Construction=CEILING-FLOOR-LAYER
   ************* Construction=SLAB CONSTRUCTION W FULL R10 INSULATION
   ************* Construction=SLAB CONSTRUCTION W FULL R5 INSULATION
   ** Warning ** GetDXCoils: Coil:Heating:DX:SingleSpeed="DX_HEATING_COIL" curve values
   **   ~~~   ** ... Defrost Energy Input Ratio Function of Temperature Curve Name = DEFROSTEIR output is not equal to 1.0 (+ or - 10%) at rated conditions.
   **   ~~~   ** ... Curve output at rated conditions = 0.152
   ************* Beginning System Sizing Calculations
   ************* Beginning Plant Sizing Calculations
   ** Warning ** Coil:WaterHeating:AirToWaterHeatPump:Wrapped "HEAT PUMP WATER HEATER EVAPORATOR": Rated air volume flow rate per watt of rated total water heating capacity is out of range
   **   ~~~   ** Min Rated Vol Flow Per Watt=[4.027E-005], Rated Vol Flow Per Watt=[1.386E-004], Max Rated Vol Flow Per Watt=[8.056E-005]. See Input-Output Reference Manual for valid range.
   ** Warning ** Water heater = WATER HEATER TANK:  Recovery Efficiency and Energy Factor could not be calculated during the test for standard ratings
   **   ~~~   ** Setpoint was never recovered and/or heater never turned on
   ** Warning ** Check input. Pump nominal power or motor efficiency is set to 0, for pump=MAINS PRESSURE
   ** Warning ** AirflowNetwork::Solver::validate_distribution: Heat pump water heater is simulated along with an AirflowNetwork but is not included in the AirflowNetwork.
   ** Warning ** Output:Meter: invalid Key Name="ELECTRIC_RANGE:INTERIOREQUIPMENT:ELECTRICITY" - not found.
   ** Warning ** Output:Meter: invalid Key Name="ELECTRIC_DRYER:INTERIOREQUIPMENT:ELECTRICITY" - not found.
   ** Warning ** Output:Meter: invalid Key Name="HEATRECOVERY:ELECTRICITY" - not found.
   ** Warning ** Output:Meter: invalid Key Name="HEATING:NATURALGAS" - not found.
   ** Warning ** Output:Meter: invalid Key Name="WATERSYSTEMS:NATURALGAS" - not found.
   ** Warning ** Output:Meter: invalid Key Name="PROPANE:FACILITY" - not found.
   ** Warning ** Output:Meter: invalid Key Name="HEATING:PROPANE" - not found.
   ************* Testing Individual Branch Integrity
   ************* All Branches passed integrity testing
   ************* Testing Individual Supply Air Path Integrity
   ************* All Supply Air Paths passed integrity testing
   ************* Testing Individual Return Air Path Integrity
   ************* All Return Air Paths passed integrity testing
   ************* No node connection errors were found.
   ************* Beginning Simulation
   ** Warning ** CalcEquipmentFlowRates: "TOTAL HOT WATER LOAD" - Target water temperature is greater than the hot water temperature by (2.35 C)
   **   ~~~   **  Environment=EXTREME_WINTER, at Simulation time=01/20 07:00 - 07:15
   **   ~~~   ** ...target water temperature     = 53.33 C
   **   ~~~   ** ...hot water temperature        = 50.98 C
   **   ~~~   ** ...Target water temperature should be less than or equal to the hot water temperature. Verify temperature setpoints and schedules.
   ** Warning ** SimHVAC: Maximum iterations (20) exceeded for all HVAC loops, at ANNUAL, 02/08 16:15 - 16:20
   **   ~~~   ** The solution for one or more of the Air Loop HVAC systems did not appear to converge
   **   ~~~   ** Air System Named = CENTRAL SYSTEM did not converge for mass flow rate
   **   ~~~   ** Check values should be zero. Most Recent values listed first.
   **   ~~~   ** Demand-to-Supply interface mass flow rate check value iteration history trace: 0.108117,0.108117,0.108117,0.108117,0.108117,0.108117,0.108117,0.108117,0.108117,0.108117,
   **   ~~~   ** Supply-to-demand interface deck 1 mass flow rate check value iteration history trace: 0.108117,0.108117,0.108117,0.108117,0.108117,0.108117,0.108117,0.108117,0.108117,0.108117,
   **   ~~~   ** Air System Named = CENTRAL SYSTEM did not converge for energy
   **   ~~~   ** Check values should be zero. Most Recent values listed first.
   **   ~~~   ** Demand-to-Supply interface energy check value iteration history trace: 2129.873533,2129.873530,2129.873528,2129.873525,2129.873523,2129.873520,2129.873518,2129.873515,2129.873513,2129.873511,
   **   ~~~   ** Supply-to-demand interface deck 1 energy check value iteration history trace: 3333.536876,3333.536872,3333.536869,3333.536865,3333.536861,3333.536857,3333.536853,3333.536850,3333.536846,3333.536842,
   ** Warning ** SimHVAC: Maximum iterations (20) exceeded for all HVAC loops, at ANNUAL, 03/12 10:34 - 10:38
   **   ~~~   ** The solution for one or more of the Air Loop HVAC systems did not appear to converge
   **   ~~~   ** Air System Named = CENTRAL SYSTEM did not converge for mass flow rate
   **   ~~~   ** Check values should be zero. Most Recent values listed first.
   **   ~~~   ** Demand-to-Supply interface mass flow rate check value iteration history trace: 9.420341E-002,9.420341E-002,9.420341E-002,9.420341E-002,9.420341E-002,9.420341E-002,9.420341E-002,9.420341E-002,9.420341E-002,9.420341E-002,
   **   ~~~   ** Supply-to-demand interface deck 1 mass flow rate check value iteration history trace: 9.420341E-002,9.420341E-002,9.420341E-002,9.420341E-002,9.420341E-002,9.420341E-002,9.420341E-002,9.420341E-002,9.420341E-002,9.420341E-002,
   **   ~~~   ** Air System Named = CENTRAL SYSTEM did not converge for energy
   **   ~~~   ** Check values should be zero. Most Recent values listed first.
   **   ~~~   ** Demand-to-Supply interface energy check value iteration history trace: 1866.897167,1866.897166,1866.897165,1866.897164,1866.897163,1866.897162,1866.897161,1866.897159,1866.897158,1866.897157,
   **   ~~~   ** Supply-to-demand interface deck 1 energy check value iteration history trace: 3189.370761,3189.370759,3189.370757,3189.370755,3189.370753,3189.370751,3189.370750,3189.370748,3189.370746,3189.370744,
   ** Warning ** SimHVAC: Maximum iterations (20) exceeded for all HVAC loops, at ANNUAL, 03/17 19:00 - 19:15
   **   ~~~   ** The solution for one or more of the Air Loop HVAC systems did not appear to converge
   **   ~~~   ** Air System Named = CENTRAL SYSTEM did not converge for mass flow rate
   **   ~~~   ** Check values should be zero. Most Recent values listed first.
   **   ~~~   ** Demand-to-Supply interface mass flow rate check value iteration history trace: 0.125818,0.125818,0.125818,0.125818,0.125818,0.125818,0.125818,0.125818,0.125818,0.125818,
   **   ~~~   ** Supply-to-demand interface deck 1 mass flow rate check value iteration history trace: 0.125818,0.125818,0.125818,0.125818,0.125818,0.125818,0.125818,0.125818,0.125818,0.125818,
   **   ~~~   ** Air System Named = CENTRAL SYSTEM did not converge for energy
   **   ~~~   ** Check values should be zero. Most Recent values listed first.
   **   ~~~   ** Demand-to-Supply interface energy check value iteration history trace: 2483.348801,2483.348798,2483.348795,2483.348791,2483.348788,2483.348784,2483.348781,2483.348778,2483.348774,2483.348771,
   **   ~~~   ** Supply-to-demand interface deck 1 energy check value iteration history trace: 3759.918637,3759.918632,3759.918627,3759.918622,3759.918617,3759.918612,3759.918606,3759.918601,3759.918596,3759.918591,
   ** Warning ** SimHVAC: Maximum iterations (20) exceeded for all HVAC loops, at ANNUAL, 03/24 09:54 - 09:57
   **   ~~~   ** The solution for one or more of the Air Loop HVAC systems did not appear to converge
   **   ~~~   ** Air System Named = CENTRAL SYSTEM did not converge for mass flow rate
   **   ~~~   ** Check values should be zero. Most Recent values listed first.
   **   ~~~   ** Demand-to-Supply interface mass flow rate check value iteration history trace: 8.434245E-002,8.434245E-002,8.434245E-002,8.434245E-002,8.434245E-002,8.434245E-002,8.434245E-002,8.434245E-002,8.434245E-002,8.434245E-002,
   **   ~~~   ** Supply-to-demand interface deck 1 mass flow rate check value iteration history trace: 8.434245E-002,8.434245E-002,8.434245E-002,8.434245E-002,8.434245E-002,8.434245E-002,8.434245E-002,8.434245E-002,8.434245E-002,8.434245E-002,
   **   ~~~   ** Air System Named = CENTRAL SYSTEM did not converge for energy
   **   ~~~   ** Check values should be zero. Most Recent values listed first.
   **   ~~~   ** Demand-to-Supply interface energy check value iteration history trace: 1665.213294,1665.213293,1665.213291,1665.213290,1665.213289,1665.213288,1665.213287,1665.213286,1665.213284,1665.213283,
   **   ~~~   ** Supply-to-demand interface deck 1 energy check value iteration history trace: 3027.531154,3027.531152,3027.531150,3027.531148,3027.531145,3027.531143,3027.531141,3027.531139,3027.531137,3027.531135,
   ** Warning ** SimHVAC: Maximum iterations (20) exceeded for all HVAC loops, at ANNUAL, 03/26 10:30 - 10:38
   **   ~~~   ** The solution for one or more of the Air Loop HVAC systems did not appear to converge
   **   ~~~   ** Air System Named = CENTRAL SYSTEM did not converge for mass flow rate
   **   ~~~   ** Check values should be zero. Most Recent values listed first.
   **   ~~~   ** Demand-to-Supply interface mass flow rate check value iteration history trace: 6.902567E-002,6.902567E-002,6.902567E-002,6.902567E-002,6.902567E-002,6.902567E-002,6.902567E-002,6.902567E-002,6.902567E-002,6.902567E-002,
   **   ~~~   ** Supply-to-demand interface deck 1 mass flow rate check value iteration history trace: 6.902567E-002,6.902567E-002,6.902567E-002,6.902567E-002,6.902567E-002,6.902567E-002,6.902567E-002,6.902567E-002,6.902567E-002,6.902567E-002,
   **   ~~~   ** Air System Named = CENTRAL SYSTEM did not converge for energy
   **   ~~~   ** Check values should be zero. Most Recent values listed first.
   **   ~~~   ** Demand-to-Supply interface energy check value iteration history trace: 1367.213396,1367.213395,1367.213394,1367.213393,1367.213392,1367.213391,1367.213390,1367.213389,1367.213388,1367.213387,
   **   ~~~   ** Supply-to-demand interface deck 1 energy check value iteration history trace: 2469.503396,2469.503394,2469.503393,2469.503391,2469.503389,2469.503388,2469.503386,2469.503384,2469.503383,2469.503381,
   ** Warning ** SimHVAC: Maximum iterations (20) exceeded for all HVAC loops, at ANNUAL, 03/27 09:00 - 09:05
   **   ~~~   ** The solution for one or more of the Air Loop HVAC systems did not appear to converge
   **   ~~~   ** Air System Named = CENTRAL SYSTEM did not converge for mass flow rate
   **   ~~~   ** Check values should be zero. Most Recent values listed first.
   **   ~~~   ** Demand-to-Supply interface mass flow rate check value iteration history trace: 0.118778,0.118778,0.118778,0.118778,0.118778,0.118778,0.118778,0.118778,0.118778,0.118778,
   **   ~~~   ** Supply-to-demand interface deck 1 mass flow rate check value iteration history trace: 0.118778,0.118778,0.118778,0.118778,0.118778,0.118778,0.118778,0.118778,0.118778,0.118778,
   **   ~~~   ** Air System Named = CENTRAL SYSTEM did not converge for energy
   **   ~~~   ** Check values should be zero. Most Recent values listed first.
   **   ~~~   ** Demand-to-Supply interface energy check value iteration history trace: 2353.560211,2353.560208,2353.560205,2353.560202,2353.560199,2353.560196,2353.560193,2353.560190,2353.560187,2353.560183,
   **   ~~~   ** Supply-to-demand interface deck 1 energy check value iteration history trace: 3720.539771,3720.539767,3720.539762,3720.539757,3720.539752,3720.539747,3720.539742,3720.539737,3720.539732,3720.539727,
   ** Warning ** SimHVAC: Maximum iterations (20) exceeded for all HVAC loops, at ANNUAL, 03/29 16:45 - 17:00
   **   ~~~   ** The solution for one or more of the Air Loop HVAC systems did not appear to converge
   **   ~~~   ** Air System Named = CENTRAL SYSTEM did not converge for mass flow rate
   **   ~~~   ** Check values should be zero. Most Recent values listed first.
   **   ~~~   ** Demand-to-Supply interface mass flow rate check value iteration history trace: 8.337453E-002,8.337453E-002,8.337453E-002,8.337453E-002,8.337453E-002,8.337453E-002,8.337453E-002,8.337453E-002,8.337453E-002,8.337453E-002,
   **   ~~~   ** Supply-to-demand interface deck 1 mass flow rate check value iteration history trace: 8.337453E-002,8.337453E-002,8.337453E-002,8.337453E-002,8.337453E-002,8.337453E-002,8.337453E-002,8.337453E-002,8.337453E-002,8.337453E-002,
   **   ~~~   ** Air System Named = CENTRAL SYSTEM did not converge for energy
   **   ~~~   ** Check values should be zero. Most Recent values listed first.
   **   ~~~   ** Demand-to-Supply interface energy check value iteration history trace: 1635.880435,1635.880434,1635.880433,1635.880431,1635.880430,1635.880429,1635.880428,1635.880427,1635.880426,1635.880424,
   **   ~~~   ** Supply-to-demand interface deck 1 energy check value iteration history trace: 2831.204797,2831.204795,2831.204793,2831.204791,2831.204789,2831.204787,2831.204785,2831.204783,2831.204781,2831.204779,
   ** Warning ** SimHVAC: Maximum iterations (20) exceeded for all HVAC loops, at ANNUAL, 04/06 11:30 - 11:38
   **   ~~~   ** The solution for one or more of the Air Loop HVAC systems did not appear to converge
   **   ~~~   ** Air System Named = CENTRAL SYSTEM did not converge for mass flow rate
   **   ~~~   ** Check values should be zero. Most Recent values listed first.
   **   ~~~   ** Demand-to-Supply interface mass flow rate check value iteration history trace: 8.150165E-002,8.150165E-002,8.150165E-002,8.150165E-002,8.150165E-002,8.150165E-002,8.150165E-002,8.150165E-002,8.150165E-002,8.150165E-002,
   **   ~~~   ** Supply-to-demand interface deck 1 mass flow rate check value iteration history trace: 8.150165E-002,8.150165E-002,8.150165E-002,8.150165E-002,8.150165E-002,8.150165E-002,8.150165E-002,8.150165E-002,8.150165E-002,8.150165E-002,
   **   ~~~   ** Air System Named = CENTRAL SYSTEM did not converge for energy
   **   ~~~   ** Check values should be zero. Most Recent values listed first.
   **   ~~~   ** Demand-to-Supply interface energy check value iteration history trace: 1587.281279,1587.281277,1587.281275,1587.281273,1587.281271,1587.281269,1587.281267,1587.281265,1587.281263,1587.281261,
   **   ~~~   ** Supply-to-demand interface deck 1 energy check value iteration history trace: 2754.543396,2754.543393,2754.543389,2754.543386,2754.543382,2754.543379,2754.543375,2754.543372,2754.543368,2754.543365,
   ** Warning ** SimHVAC: Maximum iterations (20) exceeded for all HVAC loops, at ANNUAL, 04/10 00:08 - 00:15
   **   ~~~   ** The solution for one or more of the Air Loop HVAC systems did not appear to converge
   **   ~~~   ** Air System Named = CENTRAL SYSTEM did not converge for mass flow rate
   **   ~~~   ** Check values should be zero. Most Recent values listed first.
   **   ~~~   ** Demand-to-Supply interface mass flow rate check value iteration history trace: 6.852370E-002,6.852370E-002,6.852370E-002,6.852370E-002,6.852370E-002,6.852370E-002,6.852370E-002,6.852370E-002,6.852370E-002,6.852370E-002,
   **   ~~~   ** Supply-to-demand interface deck 1 mass flow rate check value iteration history trace: 6.852370E-002,6.852370E-002,6.852370E-002,6.852370E-002,6.852370E-002,6.852370E-002,6.852370E-002,6.852370E-002,6.852370E-002,6.852370E-002,
   **   ~~~   ** Air System Named = CENTRAL SYSTEM did not converge for energy
   **   ~~~   ** Check values should be zero. Most Recent values listed first.
   **   ~~~   ** Demand-to-Supply interface energy check value iteration history trace: 1281.792463,1281.792462,1281.792460,1281.792459,1281.792458,1281.792457,1281.792455,1281.792454,1281.792453,1281.792452,
   **   ~~~   ** Supply-to-demand interface deck 1 energy check value iteration history trace: 2113.165176,2113.165174,2113.165172,2113.165170,2113.165168,2113.165166,2113.165164,2113.165162,2113.165159,2113.165157,
   ** Warning ** SimHVAC: Maximum iterations (20) exceeded for all HVAC loops, at ANNUAL, 04/11 15:15 - 15:30
   **   ~~~   ** The solution for one or more of the Air Loop HVAC systems did not appear to converge
   **   ~~~   ** Air System Named = CENTRAL SYSTEM did not converge for mass flow rate
   **   ~~~   ** Check values should be zero. Most Recent values listed first.
   **   ~~~   ** Demand-to-Supply interface mass flow rate check value iteration history trace: 1.331385E-002,1.331385E-002,1.331385E-002,1.331385E-002,1.331385E-002,1.331385E-002,1.331385E-002,1.331385E-002,1.331385E-002,1.331385E-002,
   **   ~~~   ** Supply-to-demand interface deck 1 mass flow rate check value iteration history trace: 1.331385E-002,1.331385E-002,1.331385E-002,1.331385E-002,1.331385E-002,1.331385E-002,1.331385E-002,1.331385E-002,1.331385E-002,1.331385E-002,
   **   ~~~   ** Air System Named = CENTRAL SYSTEM did not converge for energy
   **   ~~~   ** Check values should be zero. Most Recent values listed first.
   **   ~~~   ** Demand-to-Supply interface energy check value iteration history trace: 263.569875,263.569874,263.569874,263.569873,263.569873,263.569872,263.569872,263.569871,263.569871,263.569870,
   **   ~~~   ** Supply-to-demand interface deck 1 energy check value iteration history trace: 421.631733,421.631732,421.631732,421.631731,421.631730,421.631729,421.631729,421.631728,421.631727,421.631727,
   ** Warning ** SimHVAC: Maximum iterations (20) exceeded for all HVAC loops, at ANNUAL, 04/20 11:15 - 11:19
   **   ~~~   ** The solution for one or more of the Air Loop HVAC systems did not appear to converge
   **   ~~~   ** Air System Named = CENTRAL SYSTEM did not converge for mass flow rate
   **   ~~~   ** Check values should be zero. Most Recent values listed first.
   **   ~~~   ** Demand-to-Supply interface mass flow rate check value iteration history trace: 8.484844E-002,8.484844E-002,8.484844E-002,8.484844E-002,8.484844E-002,8.484844E-002,8.484844E-002,8.484844E-002,8.484844E-002,8.484844E-002,
   **   ~~~   ** Supply-to-demand interface deck 1 mass flow rate check value iteration history trace: 8.484844E-002,8.484844E-002,8.484844E-002,8.484844E-002,8.484844E-002,8.484844E-002,8.484844E-002,8.484844E-002,8.484844E-002,8.484844E-002,
   **   ~~~   ** Air System Named = CENTRAL SYSTEM did not converge for energy
   **   ~~~   ** Check values should be zero. Most Recent values listed first.
   **   ~~~   ** Demand-to-Supply interface energy check value iteration history trace: 1673.186996,1673.186994,1673.186993,1673.186991,1673.186990,1673.186988,1673.186987,1673.186985,1673.186984,1673.186983,
   **   ~~~   ** Supply-to-demand interface deck 1 energy check value iteration history trace: 2898.141786,2898.141784,2898.141781,2898.141779,2898.141776,2898.141774,2898.141771,2898.141769,2898.141766,2898.141764,
   ** Warning ** SimHVAC: Maximum iterations (20) exceeded for all HVAC loops, at ANNUAL, 04/20 13:50 - 13:55
   **   ~~~   ** The solution for one or more of the Air Loop HVAC systems did not appear to converge
   **   ~~~   ** Air System Named = CENTRAL SYSTEM did not converge for mass flow rate
   **   ~~~   ** Check values should be zero. Most Recent values listed first.
   **   ~~~   ** Demand-to-Supply interface mass flow rate check value iteration history trace: 5.870256E-002,5.870256E-002,5.870256E-002,5.870256E-002,5.870256E-002,5.870256E-002,5.870256E-002,5.870256E-002,5.870256E-002,5.870256E-002,
   **   ~~~   ** Supply-to-demand interface deck 1 mass flow rate check value iteration history trace: 5.870256E-002,5.870256E-002,5.870256E-002,5.870256E-002,5.870256E-002,5.870256E-002,5.870256E-002,5.870256E-002,5.870256E-002,5.870256E-002,
   **   ~~~   ** Air System Named = CENTRAL SYSTEM did not converge for energy
   **   ~~~   ** Check values should be zero. Most Recent values listed first.
   **   ~~~   ** Demand-to-Supply interface energy check value iteration history trace: 1156.501864,1156.501862,1156.501860,1156.501859,1156.501857,1156.501855,1156.501853,1156.501851,1156.501850,1156.501848,
   **   ~~~   ** Supply-to-demand interface deck 1 energy check value iteration history trace: 2010.933501,2010.933498,2010.933494,2010.933491,2010.933488,2010.933485,2010.933482,2010.933479,2010.933476,2010.933473,
   ** Warning ** SimHVAC: Maximum iterations (20) exceeded for all HVAC loops, at ANNUAL, 05/07 09:50 - 09:55
   **   ~~~   ** The solution for one or more of the Air Loop HVAC systems did not appear to converge
   **   ~~~   ** Air System Named = CENTRAL SYSTEM did not converge for mass flow rate
   **   ~~~   ** Check values should be zero. Most Recent values listed first.
   **   ~~~   ** Demand-to-Supply interface mass flow rate check value iteration history trace: 8.437453E-002,8.437453E-002,8.437453E-002,8.437453E-002,8.437453E-002,8.437453E-002,8.437453E-002,8.437453E-002,8.437453E-002,8.437453E-002,
   **   ~~~   ** Supply-to-demand interface deck 1 mass flow rate check value iteration history trace: 8.437453E-002,8.437453E-002,8.437453E-002,8.437453E-002,8.437453E-002,8.437453E-002,8.437453E-002,8.437453E-002,8.437453E-002,8.437453E-002,
   **   ~~~   ** Air System Named = CENTRAL SYSTEM did not converge for energy
   **   ~~~   ** Check values should be zero. Most Recent values listed first.
   **   ~~~   ** Demand-to-Supply interface energy check value iteration history trace: 1672.399564,1672.399561,1672.399559,1672.399557,1672.399554,1672.399552,1672.399550,1672.399547,1672.399545,1672.399543,
   **   ~~~   ** Supply-to-demand interface deck 1 energy check value iteration history trace: 3000.026650,3000.026646,3000.026642,3000.026638,3000.026633,3000.026629,3000.026625,3000.026621,3000.026616,3000.026612,
   ** Warning ** SimHVAC: Maximum iterations (20) exceeded for all HVAC loops, at ANNUAL, 05/15 16:15 - 16:30
   **   ~~~   ** The solution for one or more of the Air Loop HVAC systems did not appear to converge
   **   ~~~   ** Air System Named = CENTRAL SYSTEM did not converge for mass flow rate
   **   ~~~   ** Check values should be zero. Most Recent values listed first.
   **   ~~~   ** Demand-to-Supply interface mass flow rate check value iteration history trace: 8.505232E-002,8.505232E-002,8.505232E-002,8.505232E-002,8.505232E-002,8.505232E-002,8.505232E-002,8.505232E-002,8.505232E-002,8.505232E-002,
   **   ~~~   ** Supply-to-demand interface deck 1 mass flow rate check value iteration history trace: 8.505232E-002,8.505232E-002,8.505232E-002,8.505232E-002,8.505232E-002,8.505232E-002,8.505232E-002,8.505232E-002,8.505232E-002,8.505232E-002,
   **   ~~~   ** Air System Named = CENTRAL SYSTEM did not converge for energy
   **   ~~~   ** Check values should be zero. Most Recent values listed first.
   **   ~~~   ** Demand-to-Supply interface energy check value iteration history trace: 1685.373476,1685.373473,1685.373471,1685.373468,1685.373466,1685.373464,1685.373461,1685.373459,1685.373456,1685.373454,
   **   ~~~   ** Supply-to-demand interface deck 1 energy check value iteration history trace: 2929.406264,2929.406260,2929.406255,2929.406251,2929.406247,2929.406243,2929.406239,2929.406235,2929.406230,2929.406226,
   ************* Simulation Error Summary *************
   ** Warning ** The following Report Variables were requested but not generated -- check.rdd file
   **   ~~~   ** Either the IDF did not contain these elements, the variable name is misspelled,
   **   ~~~   ** or the requested variable is an advanced output which requires Output : Diagnostics, DisplayAdvancedReportVariables;
   ************* Key=*, VarName=BASEBOARD TOTAL HEATING ENERGY, Frequency=
   ************* Key=*, VarName=WATER HEATER NATURALGAS ENERGY, Frequency=
   ************* Key=*, VarName=COOLING COIL TOTAL HEATING ENERGY, Frequency=
   ************* There are 34 unused schedules in input.
   ************* There are 388 unused week schedules in input.
   ************* There are 396 unused day schedules in input.
   ************* Use Output:Diagnostics,DisplayUnusedSchedules; to see them.
   *************
   ************* ===== Recurring Error Summary =====
   ************* The following recurring error messages occurred.
   *************
   *************  ** Warning ** "TOTAL HOT WATER LOAD" - Target water temperature should be less than or equal to the hot water temperature error continues...
   *************  **   ~~~   **   This error occurred 125295 total times;
   *************  **   ~~~   **   during Warmup 0 times;
   *************  **   ~~~   **   during Sizing 0 times.
   *************  **   ~~~   **   Max=24.62966  Min=2.321992E-004
   *************
   *************  ** Warning ** SimHVAC: Exceeding Maximum iterations for all HVAC loops, during ANNUAL continues
   *************  **   ~~~   **   This error occurred 13 total times;
   *************  **   ~~~   **   during Warmup 0 times;
   *************  **   ~~~   **   during Sizing 0 times.
   *************
   *************
   ************* ===== Final Error Summary =====
   ************* The following error categories occurred.  Consider correcting or noting.
   ************* Nominally Unused Constructions
   ************* ..The nominally unused constructions warning is provided to alert you to potential conditions that can cause
   ************* ..extra time during simulation. Each construction is calculated by the algorithm indicated in the HeatBalanceAlgorithm
   ************* ..object. You may remove the constructions indicated (when you use the DisplayExtraWarnings option).
   *************
   ************* EnergyPlus Warmup Error Summary. During Warmup: 0 Warning; 0 Severe Errors.
   ************* EnergyPlus Sizing Error Summary. During Sizing: 4 Warning; 0 Severe Errors.
   ************* EnergyPlus Completed Successfully-- 125339 Warning; 0 Severe Errors; Elapsed Time=00hr 03min 44.56sec
